Circuit: * C:\Users\ngwei\Downloads\EVAL-AD5933.asc

Instance "m:u1:1": Length shorter than recommended for a level 2 MOSFET.
Instance "m:u1:2": Length shorter than recommended for a level 2 MOSFET.
Instance "m:u1:3": Length shorter than recommended for a level 2 MOSFET.
Instance "m:u1:4": Length shorter than recommended for a level 2 MOSFET.
Instance "m:u1:5": Length shorter than recommended for a level 2 MOSFET.
Instance "m:u1:6": Length shorter than recommended for a level 2 MOSFET.
Instance "m:u2:1": Length shorter than recommended for a level 2 MOSFET.
Instance "m:u2:2": Length shorter than recommended for a level 2 MOSFET.
Instance "m:u2:3": Length shorter than recommended for a level 2 MOSFET.
Instance "m:u2:4": Length shorter than recommended for a level 2 MOSFET.
Instance "m:u2:5": Length shorter than recommended for a level 2 MOSFET.
Instance "m:u2:6": Length shorter than recommended for a level 2 MOSFET.
Direct Newton iteration failed to find .op point.  (Use ".option noopiter" to skip.)
Starting Gmin stepping
Increasing initial diagonal Gmin to 100
Increasing initial diagonal Gmin to 1000
Gmin = 1000
Gmin = 107.374
Gmin = 11.5292
Gmin = 1.23794
Gmin = 0.132923
Gmin = 0.0142725
Gmin = 0.0015325
Gmin = 0.00016455
Gmin = 1.76685e-05
vernier = 0.5
vernier = 0.25
vernier = 0.125
vernier = 0.0625
vernier = 0.03125
vernier = 0.015625
Gmin = 9.04626e-06
vernier = 0.0078125
vernier = 0.00390625
vernier = 0.00195312
vernier = 0.000976562
vernier = 0.000488281
Gmin = 0
Gmin stepping failed

Starting source stepping with srcstepmethod=0
Could not converge to DC with sources off!
Starting source stepping with srcstepmethod=1
Source Step = 3.0303%
vernier = 0.25
Source Step = 7.57576%
Source Step = 15.1515%
Source Step = 22.7273%
Source Step = 30.303%
Source Step = 37.8788%
vernier = 0.0625
Source Step = 37.1419%
Source stepping failed

Pseudo transient terminated at 101.654 s, solution accepted ready or not!

Date: Mon Sep  2 23:40:32 2024
Total elapsed time: 1.175 seconds.

tnom = 27
temp = 27
method = modified trap
totiter = 18701
traniter = 2845
tranpoints = 1268
accept = 1173
rejected = 329
matrix size = 301
fillins = 544
solver = Normal
Avg thread counts: 3.1/5.7/5.6/3.1
Matrix Compiler1: 39.35 KB object code size  7.3/3.0/[2.2]
Matrix Compiler2: 36.22 KB object code size  3.6/3.8/[2.8]

