Circuit: * C:\Users\ngwei\OneDrive\Desktop\lt8708 litspice\LT8708 supercap charger - Copy.asc

Direct Newton iteration failed to find .op point.  (Use ".option noopiter" to skip.)
Starting Gmin stepping
Gmin = 10
Gmin = 1.07374
Gmin = 0.115292
Gmin = 0.0123794
Gmin = 0.00132923
Gmin = 0.000142725
Gmin = 1.5325e-05
Gmin = 1.6455e-06
Gmin = 1.76685e-07
Gmin = 1.89714e-08
Gmin = 2.03704e-09
Gmin = 2.18725e-10
Gmin = 2.34854e-11
Gmin = 2.52173e-12
Gmin = 2.70769e-13
Gmin = 0
Gmin stepping succeeded in finding the operating point.

Ignoring empty pin current: Ix(u1:20)
Ignoring empty pin current: Ix(u1:24)
Ignoring empty pin current: Ix(u1:25)
Ignoring empty pin current: Ix(u1:26)
Ignoring empty pin current: Ix(u1:27)
Ignoring empty pin current: Ix(u1:28)
Ignoring empty pin current: Ix(u1:40)
Ignoring empty pin current: Ix(u1:41)
Ignoring empty pin current: Ix(u1:20)
Ignoring empty pin current: Ix(u1:24)
Ignoring empty pin current: Ix(u1:25)
Ignoring empty pin current: Ix(u1:26)
Ignoring empty pin current: Ix(u1:27)
Ignoring empty pin current: Ix(u1:28)
Ignoring empty pin current: Ix(u1:40)
Ignoring empty pin current: Ix(u1:41)
Heightened Def Con from 0.0096249 to 0.0096249
Heightened Def Con from 0.0096249 +to 0.0096249
Heightened Def Con from 0.0096249 ++++++++++++++to 0.0096249
Heightened Def Con from 0.0134724 +++++++++++++to 0.0134724

Date: Tue Aug 20 02:12:18 2024
Total elapsed time: 919.990 seconds.

tnom = 27
temp = 27
method = modified trap
totiter = 9593279
traniter = 9592608
tranpoints = 2829943
accept = 2172274
rejected = 657701
matrix size = 722
fillins = 107
solver = Normal
Avg thread counts: 3.0/3.0/1.0/1.0
Matrix Compiler1: 21.92 KB object code size  4.7/2.3/[1.9]
Matrix Compiler2: 36.51 KB object code size  3.4/4.6/[3.1]

