Circuit: * C:\Users\ngwei\OneDrive\Desktop\Supercap\litspice\LT8708 test5.asc

Instance "m:u4:1": Length shorter than recommended for a level 2 MOSFET.
Instance "m:u4:2": Length shorter than recommended for a level 2 MOSFET.
Instance "m:u4:3": Length shorter than recommended for a level 2 MOSFET.
Instance "m:u4:4": Length shorter than recommended for a level 2 MOSFET.
Instance "m:u4:5": Length shorter than recommended for a level 2 MOSFET.
Instance "m:u4:6": Length shorter than recommended for a level 2 MOSFET.
Instance "m:u5:1": Length shorter than recommended for a level 2 MOSFET.
Instance "m:u5:2": Length shorter than recommended for a level 2 MOSFET.
Instance "m:u5:3": Length shorter than recommended for a level 2 MOSFET.
Instance "m:u5:4": Length shorter than recommended for a level 2 MOSFET.
Instance "m:u5:5": Length shorter than recommended for a level 2 MOSFET.
Instance "m:u5:6": Length shorter than recommended for a level 2 MOSFET.
Direct Newton iteration failed to find .op point.  (Use ".option noopiter" to skip.)
Starting Gmin stepping
Gmin = 10
Gmin = 1.07374
Gmin = 0.115292
Gmin = 0.0123794
Gmin = 0.00132923
vernier = 0.5
vernier = 0.25
vernier = 0.125
vernier = 0.0625
Gmin = 0.00100083
vernier = 0.03125
vernier = 0.015625
vernier = 0.0078125
vernier = 0.00390625
vernier = 0.00195312
Gmin = 0.00100083
vernier = 0.000976562
vernier = 0.000488281
Gmin = 0
Gmin stepping failed

Starting source stepping with srcstepmethod=0
Source Step = 3.0303%
Source Step = 24.4318%
vernier = 0.015625
Source Step = 24.2661%
Source Step = 24.2957%
Source Step = 24.3253%
Source Step = 24.3549%
Source Step = 24.3845%
vernier = 0.00146484
Source Step = 24.42%
Source Step = 24.4644%
Source Step = 24.5088%
Source Step = 24.5531%
Source Step = 24.5975%
vernier = 0.00219727
Source Step = 24.6486%
Source Step = 24.7152%
Source Step = 24.7818%
Source Step = 24.8483%
Source Step = 24.9149%
vernier = 0.0032959
Source Step = 24.9882%
Source Step = 25.088%
Source Step = 25.1879%
Source Step = 25.2878%
Source Step = 25.3877%
vernier = 0.00494385
Source Step = 25.4925%
Source Step = 25.6423%
Source Step = 25.7922%
Source Step = 25.942%
Source Step = 26.0918%
Source Step = 26.2416%
vernier = 0.00741577
Source Step = 26.4663%
Source Step = 26.691%
Source Step = 26.9158%
Source Step = 27.1405%
Source Step = 27.3652%
vernier = 0.0111237
Source Step = 27.691%
Source Step = 28.0281%
Source Step = 28.3652%
Source Step = 28.7023%
Source Step = 29.0394%
vernier = 0.0166855
Source Step = 29.5113%
Source Step = 30.0169%
Source Step = 30.5225%
Source Step = 31.0281%
Source Step = 31.5338%
vernier = 0.0250282
Source Step = 32.2164%
Source Step = 32.9748%
Source Step = 33.7332%
Source Step = 34.4916%
Source Step = 35.2501%
vernier = 0.0375423
Source Step = 36.236%
Source Step = 37.3737%
Source Step = 38.5113%
Source Step = 39.649%
Source Step = 40.7866%
vernier = 0.0563135
Source Step = 42.2087%
Source Step = 43.9152%
Source Step = 45.6216%
Source Step = 47.3281%
Source Step = 49.0346%
vernier = 0.0844703
Source Step = 51.0823%
Source Step = 53.642%
Source Step = 56.2017%
Source Step = 58.7614%
Source Step = 61.3212%
vernier = 0.126705
Source Step = 64.2648%
Source Step = 68.1044%
Source Step = 71.9439%
Source Step = 75.7835%
Source Step = 79.623%
vernier = 0.190058
Source Step = 83.8466%
Source Step = 89.6059%
Source Step = 95.3652%
Source Step = 100%
Source stepping succeeded in finding the operating point.

Ignoring empty pin current: Ix(u1:20)
Ignoring empty pin current: Ix(u1:24)
Ignoring empty pin current: Ix(u1:25)
Ignoring empty pin current: Ix(u1:26)
Ignoring empty pin current: Ix(u1:27)
Ignoring empty pin current: Ix(u1:28)
Ignoring empty pin current: Ix(u1:40)
Ignoring empty pin current: Ix(u1:41)
Ignoring empty pin current: Ix(u2:4)
Ignoring empty pin current: Ix(u3:4)
Ignoring empty pin current: Ix(u7:4)
Ignoring empty pin current: Ix(u1:20)
Ignoring empty pin current: Ix(u1:24)
Ignoring empty pin current: Ix(u1:25)
Ignoring empty pin current: Ix(u1:26)
Ignoring empty pin current: Ix(u1:27)
Ignoring empty pin current: Ix(u1:28)
Ignoring empty pin current: Ix(u1:40)
Ignoring empty pin current: Ix(u1:41)
Ignoring empty pin current: Ix(u2:4)
Ignoring empty pin current: Ix(u3:4)
Ignoring empty pin current: Ix(u7:4)
Heightened Def Con from 0.00110697 to 0.00110697

Date: Fri Jan 24 00:26:14 2025
Total elapsed time: 48.239 seconds.

tnom = 27
temp = 27
method = modified trap
totiter = 266821
traniter = 260986
tranpoints = 75349
accept = 56212
rejected = 19138
matrix size = 893
fillins = 658
solver = Alternate
Avg thread counts: 8.0/4.0/3.0/1.0
Matrix Compiler1: 73.05 KB object code size  22.4/16.9/[11.5]
Matrix Compiler2: 69.33 KB object code size  12.7/18.2/[11.5]

