Circuit: * C:\Users\ngwei\OneDrive\Desktop\lt8708 litspice\LT8708 test2.asc

v3: Removing PWL point (1e-05,0)
Direct Newton iteration failed to find .op point.  (Use ".option noopiter" to skip.)
Starting Gmin stepping
Gmin = 10
Gmin = 1.07374
Gmin = 0.115292
Gmin = 0.0123794
Gmin = 0.00132923
Gmin = 0.000142725
Gmin = 1.5325e-05
Gmin = 1.6455e-06
Gmin = 1.76685e-07
Gmin = 1.89714e-08
Gmin = 2.03704e-09
Gmin = 2.18725e-10
Gmin = 2.34854e-11
Gmin = 2.52173e-12
Gmin = 0
Gmin stepping succeeded in finding the operating point.

Ignoring empty pin current: Ix(u1:20)
Ignoring empty pin current: Ix(u1:24)
Ignoring empty pin current: Ix(u1:25)
Ignoring empty pin current: Ix(u1:26)
Ignoring empty pin current: Ix(u1:27)
Ignoring empty pin current: Ix(u1:28)
Ignoring empty pin current: Ix(u1:40)
Ignoring empty pin current: Ix(u1:41)
Ignoring empty pin current: Ix(u1:20)
Ignoring empty pin current: Ix(u1:24)
Ignoring empty pin current: Ix(u1:25)
Ignoring empty pin current: Ix(u1:26)
Ignoring empty pin current: Ix(u1:27)
Ignoring empty pin current: Ix(u1:28)
Ignoring empty pin current: Ix(u1:40)
Ignoring empty pin current: Ix(u1:41)
Heightened Def Con from 0.00961827 to 0.00961827
Heightened Def Con from 0.00961827 to 0.00961827
Heightened Def Con from 0.00961827 to 0.00961827
Heightened Def Con from 0.00961827 to 0.00961827
Heightened Def Con from 0.00961827 to 0.00961827
Heightened Def Con from 0.00961827 to 0.00961827
Heightened Def Con from 0.00961827 to 0.00961827
Heightened Def Con from 0.00961827 to 0.00961827
Heightened Def Con from 0.00961827 to 0.00961827
Heightened Def Con from 0.00961827 to 0.00961827
Heightened Def Con from 0.00961827 +++++to 0.00961827
Heightened Def Con from 0.0134639 +++++to 0.0134639

Date: Sat Aug 24 16:43:46 2024
Total elapsed time: 1248.020 seconds.

tnom = 27
temp = 27
method = modified trap
totiter = 14135065
traniter = 14134432
tranpoints = 4035285
accept = 3007347
rejected = 1027960
matrix size = 721
fillins = 107
solver = Normal
Avg thread counts: 3.0/3.0/1.0/1.0
Matrix Compiler1: 21.96 KB object code size  4.8/2.5/[2.0]
Matrix Compiler2: off  [2.8]/5.4/3.0

