Circuit: * C:\Users\ngwei\OneDrive\Desktop\Supercap\litspice\LT8708 test4.asc

Instance "m:u4:1": Length shorter than recommended for a level 2 MOSFET.
Instance "m:u4:2": Length shorter than recommended for a level 2 MOSFET.
Instance "m:u4:3": Length shorter than recommended for a level 2 MOSFET.
Instance "m:u4:4": Length shorter than recommended for a level 2 MOSFET.
Instance "m:u4:5": Length shorter than recommended for a level 2 MOSFET.
Instance "m:u4:6": Length shorter than recommended for a level 2 MOSFET.
Instance "m:u5:1": Length shorter than recommended for a level 2 MOSFET.
Instance "m:u5:2": Length shorter than recommended for a level 2 MOSFET.
Instance "m:u5:3": Length shorter than recommended for a level 2 MOSFET.
Instance "m:u5:4": Length shorter than recommended for a level 2 MOSFET.
Instance "m:u5:5": Length shorter than recommended for a level 2 MOSFET.
Instance "m:u5:6": Length shorter than recommended for a level 2 MOSFET.
Direct Newton iteration failed to find .op point.  (Use ".option noopiter" to skip.)
Starting Gmin stepping
Gmin = 10
Gmin = 1.07374
Gmin = 0.115292
vernier = 0.5
vernier = 0.25
vernier = 0.125
Gmin = 0.0524707
vernier = 0.0625
vernier = 0.03125
vernier = 0.015625
vernier = 0.0078125
Gmin = 0.0500979
vernier = 0.00390625
vernier = 0.00195312
vernier = 0.000976562
vernier = 0.000488281
Gmin = 0.0499942
Gmin = 0
Gmin stepping failed

Starting source stepping with srcstepmethod=0
Could not converge to DC with sources off!
Starting source stepping with srcstepmethod=1
Source Step = 3.0303%
Source Step = 33.3333%
Source Step = 63.6364%
Source Step = 93.9394%
Source stepping succeeded in finding the operating point.

Ignoring empty pin current: Ix(u1:20)
Ignoring empty pin current: Ix(u1:24)
Ignoring empty pin current: Ix(u1:25)
Ignoring empty pin current: Ix(u1:26)
Ignoring empty pin current: Ix(u1:27)
Ignoring empty pin current: Ix(u1:28)
Ignoring empty pin current: Ix(u1:40)
Ignoring empty pin current: Ix(u1:41)
Ignoring empty pin current: Ix(u2:4)
Ignoring empty pin current: Ix(u3:4)
Ignoring empty pin current: Ix(u7:4)
Ignoring empty pin current: Ix(u1:20)
Ignoring empty pin current: Ix(u1:24)
Ignoring empty pin current: Ix(u1:25)
Ignoring empty pin current: Ix(u1:26)
Ignoring empty pin current: Ix(u1:27)
Ignoring empty pin current: Ix(u1:28)
Ignoring empty pin current: Ix(u1:40)
Ignoring empty pin current: Ix(u1:41)
Ignoring empty pin current: Ix(u2:4)
Ignoring empty pin current: Ix(u3:4)
Ignoring empty pin current: Ix(u7:4)
Heightened Def Con from 3.59882e-07 to 3.63882e-07
Heightened Def Con from 7.43248e-07 to 7.4327e-07
Heightened Def Con from 7.43285e-07 to 7.46285e-07
Heightened Def Con from 7.46286e-07 to 7.52286e-07
Heightened Def Con from 1.39423e-05 to 1.39463e-05
Heightened Def Con from 2.07327e-05 to 2.07367e-05
Heightened Def Con from 2.75231e-05 to 2.75271e-05
Heightened Def Con from 3.43132e-05 to 3.43182e-05
Heightened Def Con from 4.11031e-05 to 4.11081e-05
Heightened Def Con from 4.78932e-05 to 4.78982e-05
Heightened Def Con from 5.46831e-05 to 5.46881e-05
Heightened Def Con from 6.14731e-05 to 6.14771e-05
Heightened Def Con from 6.82632e-05 to 6.82672e-05
Heightened Def Con from 7.50535e-05 to 7.50575e-05
Heightened Def Con from 8.18437e-05 to 8.18477e-05
Heightened Def Con from 8.86341e-05 to 8.86381e-05
Heightened Def Con from 9.54243e-05 to 9.54283e-05
Heightened Def Con from 0.000102215 to 0.000102219
Heightened Def Con from 0.000109005 to 0.000109009
Heightened Def Con from 0.000115795 to 0.000115799
Heightened Def Con from 0.000122585 to 0.000122589
Heightened Def Con from 0.000129375 to 0.00012938
Heightened Def Con from 0.000136166 to 0.00013617
Heightened Def Con from 0.000142956 to 0.00014296
Heightened Def Con from 0.000149746 to 0.00014975
Heightened Def Con from 0.000156536 to 0.00015654
Heightened Def Con from 0.000163326 to 0.00016333
Heightened Def Con from 0.000170117 to 0.000170121
Heightened Def Con from 0.000176907 to 0.000176911
Heightened Def Con from 0.000183697 to 0.000183701
Heightened Def Con from 0.000190487 to 0.000190491
Heightened Def Con from 0.000197278 to 0.000197282
Heightened Def Con from 0.000204068 to 0.000204072
Heightened Def Con from 0.000210858 to 0.000210862
Heightened Def Con from 0.000217648 to 0.000217652
Heightened Def Con from 0.000224438 to 0.000224442
Heightened Def Con from 0.000231229 to 0.000231233
Heightened Def Con from 0.000238019 to 0.000238023
Heightened Def Con from 0.000244809 to 0.000244813
Heightened Def Con from 0.0002516 to 0.000251604
Heightened Def Con from 0.00025839 to 0.000258394
Heightened Def Con from 0.00026518 to 0.000265184
Heightened Def Con from 0.00027197 to 0.000271974
Heightened Def Con from 0.00027876 to 0.000278764
Heightened Def Con from 0.000285551 to 0.000285555
Heightened Def Con from 0.000292341 to 0.000292345
Heightened Def Con from 0.000299131 to 0.000299136
Heightened Def Con from 0.000305921 to 0.000305925
Heightened Def Con from 0.000312711 to 0.000312716
Heightened Def Con from 0.000319501 to 0.000319505
Heightened Def Con from 0.000326291 to 0.000326295
Heightened Def Con from 0.000333082 to 0.000333086
Heightened Def Con from 0.000339872 to 0.000339876
Heightened Def Con from 0.000346662 to 0.000346666
Heightened Def Con from 0.000353452 to 0.000353457
Heightened Def Con from 0.000360242 to 0.000360246
Heightened Def Con from 0.000367033 to 0.000367037
Heightened Def Con from 0.000373823 to 0.000373827
Heightened Def Con from 0.000380613 to 0.000380617
Heightened Def Con from 0.000387403 to 0.000387407
Heightened Def Con from 0.000394194 to 0.000394198
Heightened Def Con from 0.000400984 to 0.000400989
Heightened Def Con from 0.000407774 to 0.000407778
Heightened Def Con from 0.000414564 to 0.000414568
Heightened Def Con from 0.000421354 to 0.000421358
Heightened Def Con from 0.000428144 to 0.000428149
Heightened Def Con from 0.000434934 to 0.000434938
Heightened Def Con from 0.000441725 to 0.000441729
Heightened Def Con from 0.000448515 to 0.000448519
Heightened Def Con from 0.000455305 to 0.000455309
Heightened Def Con from 0.000462095 to 0.000462099
Heightened Def Con from 0.000468886 to 0.00046889
Heightened Def Con from 0.000475676 to 0.00047568
Heightened Def Con from 0.000482466 to 0.000482471
Heightened Def Con from 0.000489256 to 0.000489261
Heightened Def Con from 0.000496046 to 0.00049605
Heightened Def Con from 0.000502836 to 0.00050284
Heightened Def Con from 0.000509626 to 0.00050963
Heightened Def Con from 0.000516417 to 0.000516422
Heightened Def Con from 0.000523206 to 0.00052321
Heightened Def Con from 0.000529997 to 0.000530001
Heightened Def Con from 0.000536787 to 0.000536791
Heightened Def Con from 0.000543577 to 0.000543581
Heightened Def Con from 0.000550367 to 0.000550371
Heightened Def Con from 0.000557158 to 0.000557162
Heightened Def Con from 0.000563948 to 0.000563952
Heightened Def Con from 0.000570738 to 0.000570742
Heightened Def Con from 0.000577528 to 0.000577532
Heightened Def Con from 0.000584319 to 0.000584323
Heightened Def Con from 0.000591109 to 0.000591113
Heightened Def Con from 0.000597899 to 0.000597905
Heightened Def Con from 0.000604689 to 0.000604696
Heightened Def Con from 0.00061148 to 0.000611484
Heightened Def Con from 0.00061827 to 0.000618274
Heightened Def Con from 0.00062506 to 0.000625066
Heightened Def Con from 0.000631851 to 0.000631855
Heightened Def Con from 0.000638641 to 0.000638647
Heightened Def Con from 0.000645431 to 0.000645437
Heightened Def Con from 0.000652221 to 0.000652226
Heightened Def Con from 0.000659012 to 0.000659018
Heightened Def Con from 0.000665802 to 0.000665806
Heightened Def Con from 0.000672592 to 0.000672598
Heightened Def Con from 0.000679382 to 0.000679388
Heightened Def Con from 0.000686173 to 0.000686177
Heightened Def Con from 0.000692963 to 0.000692967
Heightened Def Con from 0.000699753 to 0.000699759
Heightened Def Con from 0.000706543 to 0.000706548
Heightened Def Con from 0.000713338 to 0.000713344
Heightened Def Con from 0.000720129 to 0.000720135
Heightened Def Con from 0.000726919 to 0.000726925
Heightened Def Con from 0.000733709 to 0.000733715
Heightened Def Con from 0.0007405 to 0.000740506
Heightened Def Con from 0.00074729 to 0.000747294
Heightened Def Con from 0.00075408 to 0.000754086
Heightened Def Con from 0.00076087 to 0.000760876
Heightened Def Con from 0.000767661 to 0.000767665
Heightened Def Con from 0.000774451 to 0.000774457
Heightened Def Con from 0.000774479 to 0.000774482
Heightened Def Con from 0.000781241 to 0.000781247
Heightened Def Con from 0.000781269 to 0.000781272
Heightened Def Con from 0.000788032 to 0.000788038
Heightened Def Con from 0.000794822 to 0.000794826
Heightened Def Con from 0.000801618 to 0.000801624
Heightened Def Con from 0.000808408 to 0.000808413
Heightened Def Con from 0.000815198 to 0.000815202
Heightened Def Con from 0.000821991 to 0.000821997
Heightened Def Con from 0.000828781 to 0.000828786
Heightened Def Con from 0.000835571 to 0.000835575
Heightened Def Con from 0.000842362 to 0.000842368
Heightened Def Con from 0.000849152 to 0.000849158
Heightened Def Con from 0.000855942 to 0.000855948
Heightened Def Con from 0.000862732 to 0.000862738
Heightened Def Con from 0.000869523 to 0.000869529
Heightened Def Con from 0.000876313 to 0.000876317
Heightened Def Con from 0.000883103 to 0.000883109
Heightened Def Con from 0.000883132 to 0.000883135
Heightened Def Con from 0.000889894 to 0.0008899
Heightened Def Con from 0.000896684 to 0.00089669
Heightened Def Con from 0.000903474 to 0.000903478
Heightened Def Con from 0.000910264 to 0.00091027
Heightened Def Con from 0.000917055 to 0.000917062
Heightened Def Con from 0.000923845 to 0.000923849
Heightened Def Con from 0.000930635 to 0.000930641
Heightened Def Con from 0.000934071 to 0.000934075
Heightened Def Con from 0.000937432 to 0.000937438
Heightened Def Con from 0.000944222 to 0.000944226
Heightened Def Con from 0.000951012 to 0.000951016
Heightened Def Con from 0.000957802 to 0.000957808
Heightened Def Con from 0.000964593 to 0.000964599
Heightened Def Con from 0.000971383 to 0.000971388
Heightened Def Con from 0.000978173 to 0.000978177
Heightened Def Con from 0.000984963 to 0.000984969
Heightened Def Con from 0.000991754 to 0.00099176
Heightened Def Con from 0.000998544 to 0.000998548
Heightened Def Con from 0.00100533 to 0.00100534
Heightened Def Con from 0.00101212 to 0.00101213
Heightened Def Con from 0.00101891 to 0.00101892
Heightened Def Con from 0.0010257 to 0.00102571
Heightened Def Con from 0.0010325 to 0.0010325
Heightened Def Con from 0.00103929 to 0.00103929
Heightened Def Con from 0.00104608 to 0.00104608
Heightened Def Con from 0.00104609 to 0.0010461
Heightened Def Con from 0.00105287 to 0.00105287
Heightened Def Con from 0.0010529 to 0.0010529
Heightened Def Con from 0.00105966 to 0.00105966
Heightened Def Con from 0.00106645 to 0.00106645
Heightened Def Con from 0.00107324 to 0.00107324
Heightened Def Con from 0.00108003 to 0.00108003
Heightened Def Con from 0.00108682 to 0.00108682
Heightened Def Con from 0.00109361 to 0.00109361
Heightened Def Con from 0.0011004 to 0.0011004
Heightened Def Con from 0.00110719 to 0.00110719
Heightened Def Con from 0.00111398 to 0.00111398
Heightened Def Con from 0.00112077 to 0.00112077
Heightened Def Con from 0.00112756 to 0.00112756
Heightened Def Con from 0.00113435 to 0.00113435
Heightened Def Con from 0.00114114 to 0.00114115
Heightened Def Con from 0.00114793 to 0.00114793
Heightened Def Con from 0.00115472 to 0.00115473
Heightened Def Con from 0.00116151 to 0.00116151
Heightened Def Con from 0.0011683 to 0.00116831
Heightened Def Con from 0.00117509 to 0.0011751
Heightened Def Con from 0.00118867 to 0.00118868
Heightened Def Con from 0.00119546 to 0.00119547
Heightened Def Con from 0.00120225 to 0.00120226
Heightened Def Con from 0.00120904 to 0.00120905
Heightened Def Con from 0.00121583 to 0.00121584
Heightened Def Con from 0.00122262 to 0.00122263
Heightened Def Con from 0.00122941 to 0.00122942
Heightened Def Con from 0.0012362 to 0.00123621
Heightened Def Con from 0.00124299 to 0.001243
Heightened Def Con from 0.00124978 to 0.00124979
Heightened Def Con from 0.00125657 to 0.00125658
Heightened Def Con from 0.00126336 to 0.00126337
Heightened Def Con from 0.00127015 to 0.00127016
Heightened Def Con from 0.00127694 to 0.00127695
Heightened Def Con from 0.00128374 to 0.00128374
Heightened Def Con from 0.00129053 to 0.00129053
Heightened Def Con from 0.00129732 to 0.00129732
Heightened Def Con from 0.00130411 to 0.00130412
Heightened Def Con from 0.0013109 to 0.00131091
Heightened Def Con from 0.0013177 to 0.0013177
Heightened Def Con from 0.00132449 to 0.00132449
Heightened Def Con from 0.00133128 to 0.00133129
Heightened Def Con from 0.00133807 to 0.00133808
Heightened Def Con from 0.00134487 to 0.00134487
Heightened Def Con from 0.00135166 to 0.00135166
Heightened Def Con from 0.00135845 to 0.00135845
Heightened Def Con from 0.00136524 to 0.00136524
Heightened Def Con from 0.00137203 to 0.00137203
Heightened Def Con from 0.00137882 to 0.00137882
Heightened Def Con from 0.00138561 to 0.00138561
Heightened Def Con from 0.0013924 to 0.0013924
Heightened Def Con from 0.00139919 to 0.00139919
Heightened Def Con from 0.00140598 to 0.00140598
Heightened Def Con from 0.00141277 to 0.00141277
Heightened Def Con from 0.00141956 to 0.00141956
Heightened Def Con from 0.00142635 to 0.00142635
Heightened Def Con from 0.00143314 to 0.00143315
Heightened Def Con from 0.00143993 to 0.00143993
Heightened Def Con from 0.00144672 to 0.00144673
Heightened Def Con from 0.00145351 to 0.00145351
Heightened Def Con from 0.0014603 to 0.00146031
Heightened Def Con from 0.00146709 to 0.0014671
Heightened Def Con from 0.00147388 to 0.00147388
Heightened Def Con from 0.00148067 to 0.00148068
Heightened Def Con from 0.00148746 to 0.00148747
Heightened Def Con from 0.00149425 to 0.00149426
Heightened Def Con from 0.00150104 to 0.00150105
Heightened Def Con from 0.00150783 to 0.00150784
Heightened Def Con from 0.00151462 to 0.00151463
Heightened Def Con from 0.00152141 to 0.00152142
Heightened Def Con from 0.00152821 to 0.00152821
Heightened Def Con from 0.001535 to 0.00153501
Heightened Def Con from 0.00154179 to 0.0015418
Heightened Def Con from 0.00154859 to 0.00154859
Heightened Def Con from 0.00155538 to 0.00155538
Heightened Def Con from 0.00156217 to 0.00156217
Heightened Def Con from 0.00156896 to 0.00156896
Heightened Def Con from 0.00157575 to 0.00157575
Heightened Def Con from 0.00158254 to 0.00158254
Heightened Def Con from 0.00158933 to 0.00158934
Heightened Def Con from 0.00159612 to 0.00159613
Heightened Def Con from 0.00160291 to 0.00160292
Heightened Def Con from 0.00160971 to 0.00160971
Heightened Def Con from 0.0016165 to 0.0016165
Heightened Def Con from 0.00162329 to 0.00162329
Heightened Def Con from 0.00163008 to 0.00163008
Heightened Def Con from 0.00163687 to 0.00163687
Heightened Def Con from 0.00164366 to 0.00164366
Heightened Def Con from 0.00165045 to 0.00165046
Heightened Def Con from 0.00165724 to 0.00165725
Heightened Def Con from 0.00166403 to 0.00166404
Heightened Def Con from 0.00167082 to 0.00167083
Heightened Def Con from 0.00167761 to 0.00167762
Heightened Def Con from 0.0016844 to 0.00168441
Heightened Def Con from 0.0016912 to 0.0016912
Heightened Def Con from 0.00169475 to 0.00169476
Heightened Def Con from 0.00169799 to 0.001698
Heightened Def Con from 0.00170478 to 0.00170478
Heightened Def Con from 0.00170834 to 0.00170834
Heightened Def Con from 0.00171157 to 0.00171158
Heightened Def Con from 0.00171836 to 0.00171837
Heightened Def Con from 0.00172515 to 0.00172516
Heightened Def Con from 0.00173194 to 0.00173195
Heightened Def Con from 0.00173873 to 0.00173874
Heightened Def Con from 0.00174552 to 0.00174552
Heightened Def Con from 0.00175231 to 0.00175232
Heightened Def Con from 0.0017591 to 0.00175911
Heightened Def Con from 0.00176589 to 0.0017659
Heightened Def Con from 0.00177268 to 0.00177269
Heightened Def Con from 0.00177947 to 0.00177948
Heightened Def Con from 0.00178626 to 0.00178627
Heightened Def Con from 0.00179305 to 0.00179306
Heightened Def Con from 0.00179984 to 0.00179985
Heightened Def Con from 0.00180663 to 0.00180664
Heightened Def Con from 0.00181342 to 0.00181343
Heightened Def Con from 0.00182022 to 0.00182023
Heightened Def Con from 0.00182701 to 0.00182702
Heightened Def Con from 0.00183381 to 0.00183381
Heightened Def Con from 0.0018406 to 0.0018406
Heightened Def Con from 0.00184739 to 0.00184739
Heightened Def Con from 0.00185418 to 0.00185418
Heightened Def Con from 0.00185782 to 0.00185783
Heightened Def Con from 0.00186097 to 0.00186097
Heightened Def Con from 0.00186776 to 0.00186776
Heightened Def Con from 0.00187455 to 0.00187455
Heightened Def Con from 0.00188134 to 0.00188134
Heightened Def Con from 0.00188814 to 0.00188814
Heightened Def Con from 0.00189493 to 0.00189493
Heightened Def Con from 0.00190172 to 0.00190172
Heightened Def Con from 0.00190851 to 0.00190851
Heightened Def Con from 0.0019153 to 0.0019153
Heightened Def Con from 0.00192209 to 0.00192209
Heightened Def Con from 0.00192888 to 0.00192888
Heightened Def Con from 0.00193567 to 0.00193567
Heightened Def Con from 0.00194246 to 0.00194246
Heightened Def Con from 0.00194925 to 0.00194925
Heightened Def Con from 0.00195604 to 0.00195604
Heightened Def Con from 0.00196283 to 0.00196283
Heightened Def Con from 0.00196962 to 0.00196962
Heightened Def Con from 0.00197641 to 0.00197641
Heightened Def Con from 0.0019832 to 0.0019832
Heightened Def Con from 0.00198999 to 0.00198999
Heightened Def Con from 0.00199678 to 0.00199678
Heightened Def Con from 0.00200357 to 0.00200357
Heightened Def Con from 0.00201036 to 0.00201036
Heightened Def Con from 0.00201715 to 0.00201716
Heightened Def Con from 0.00202394 to 0.00202394
Heightened Def Con from 0.00203073 to 0.00203074
Heightened Def Con from 0.00203752 to 0.00203753
Heightened Def Con from 0.00204431 to 0.00204432
Heightened Def Con from 0.00204791 to 0.00204792
Heightened Def Con from 0.0020511 to 0.00205111
Heightened Def Con from 0.00205465 to 0.00205465
Heightened Def Con from 0.00205789 to 0.0020579
Heightened Def Con from 0.00206468 to 0.00206469
Heightened Def Con from 0.00207147 to 0.00207148
Heightened Def Con from 0.00207826 to 0.00207827
Heightened Def Con from 0.00208505 to 0.00208506
Heightened Def Con from 0.00209184 to 0.00209185
Heightened Def Con from 0.00209863 to 0.00209864
Heightened Def Con from 0.00210542 to 0.00210543
Heightened Def Con from 0.00211222 to 0.00211223
Heightened Def Con from 0.00211902 to 0.00211902
Heightened Def Con from 0.00212256 to 0.00212257
Heightened Def Con from 0.00212581 to 0.00212581
Heightened Def Con from 0.0021326 to 0.0021326
Heightened Def Con from 0.00213939 to 0.00213939
Heightened Def Con from 0.00214618 to 0.00214619
Heightened Def Con from 0.00215297 to 0.00215298
Heightened Def Con from 0.00215976 to 0.00215977
Heightened Def Con from 0.00216655 to 0.00216656
Heightened Def Con from 0.00217334 to 0.00217335
Heightened Def Con from 0.00218013 to 0.00218014
Heightened Def Con from 0.00218692 to 0.00218693
Heightened Def Con from 0.00219371 to 0.00219372
Heightened Def Con from 0.0022005 to 0.00220051
Heightened Def Con from 0.0022073 to 0.0022073
Heightened Def Con from 0.00221409 to 0.0022141
Heightened Def Con from 0.00222088 to 0.00222089
Heightened Def Con from 0.00222767 to 0.00222768
Heightened Def Con from 0.00223446 to 0.00223447
Heightened Def Con from 0.00224125 to 0.00224126
Heightened Def Con from 0.00224804 to 0.00224805
Heightened Def Con from 0.00225483 to 0.00225484
Heightened Def Con from 0.00226162 to 0.00226163
Heightened Def Con from 0.00226841 to 0.00226842
Heightened Def Con from 0.0022752 to 0.00227521
Heightened Def Con from 0.00228199 to 0.002282
Heightened Def Con from 0.00228878 to 0.00228879
Heightened Def Con from 0.00229557 to 0.00229558
Heightened Def Con from 0.00230236 to 0.00230237
Heightened Def Con from 0.00230915 to 0.00230916
Heightened Def Con from 0.00231594 to 0.00231595
Heightened Def Con from 0.00232274 to 0.00232274
Heightened Def Con from 0.00232953 to 0.00232953
Heightened Def Con from 0.00233632 to 0.00233632
Heightened Def Con from 0.00234311 to 0.00234311
Heightened Def Con from 0.0023499 to 0.0023499
Heightened Def Con from 0.00235669 to 0.00235669
Heightened Def Con from 0.00236348 to 0.00236349
Heightened Def Con from 0.00237027 to 0.00237028
Heightened Def Con from 0.00237706 to 0.00237707
Heightened Def Con from 0.00238385 to 0.00238386
Heightened Def Con from 0.00239065 to 0.00239066
Heightened Def Con from 0.00239744 to 0.00239745
Heightened Def Con from 0.00240423 to 0.00240424
Heightened Def Con from 0.00241102 to 0.00241102
Heightened Def Con from 0.00241781 to 0.00241782
Heightened Def Con from 0.0024246 to 0.00242461
Heightened Def Con from 0.00243139 to 0.0024314
Heightened Def Con from 0.00243818 to 0.00243819
Heightened Def Con from 0.00244497 to 0.00244498
Heightened Def Con from 0.00245176 to 0.00245177
Heightened Def Con from 0.00245855 to 0.00245856
Heightened Def Con from 0.00246535 to 0.00246535
Heightened Def Con from 0.00247214 to 0.00247214
Heightened Def Con from 0.00247893 to 0.00247894
Heightened Def Con from 0.00248572 to 0.00248573
Heightened Def Con from 0.00249251 to 0.00249252
Heightened Def Con from 0.00249931 to 0.00249931
Heightened Def Con from 0.00250609 to 0.0025061
Heightened Def Con from 0.00251289 to 0.00251289
Heightened Def Con from 0.00251967 to 0.00251968
Heightened Def Con from 0.00252646 to 0.00252647
Heightened Def Con from 0.00253325 to 0.00253326
Heightened Def Con from 0.00254004 to 0.00254005
Heightened Def Con from 0.00254683 to 0.00254684
Heightened Def Con from 0.00255362 to 0.00255363
Heightened Def Con from 0.00256041 to 0.00256042
Heightened Def Con from 0.00256395 to 0.00256395
Heightened Def Con from 0.0025672 to 0.00256721
Heightened Def Con from 0.00257077 to 0.00257077
Heightened Def Con from 0.00257399 to 0.002574
Heightened Def Con from 0.00257757 to 0.00257757
Heightened Def Con from 0.00258078 to 0.00258079
Heightened Def Con from 0.00258758 to 0.00258758
Heightened Def Con from 0.00259437 to 0.00259437
Heightened Def Con from 0.00260116 to 0.00260116
Heightened Def Con from 0.00260483 to 0.00260483
Heightened Def Con from 0.00260795 to 0.00260795
Heightened Def Con from 0.0026113 to 0.0026113
Heightened Def Con from 0.00261165 to 0.00261165
Heightened Def Con from 0.00261474 to 0.00261474
Heightened Def Con from 0.00261846 to 0.00261846
Heightened Def Con from 0.00262153 to 0.00262153
Heightened Def Con from 0.00262528 to 0.00262528
Heightened Def Con from 0.00262832 to 0.00262832
Heightened Def Con from 0.00263154 to 0.00263155
Heightened Def Con from 0.00263511 to 0.00263511
Heightened Def Con from 0.0026419 to 0.0026419
Heightened Def Con from 0.00264869 to 0.00264869
Heightened Def Con from 0.00265548 to 0.00265548
Heightened Def Con from 0.0026594 to 0.0026594
Heightened Def Con from 0.00266227 to 0.00266228
Heightened Def Con from 0.00266619 to 0.00266619
Heightened Def Con from 0.00266906 to 0.00266906
Heightened Def Con from 0.00267303 to 0.00267303
Heightened Def Con from 0.00267585 to 0.00267585
Heightened Def Con from 0.00268264 to 0.00268264
Heightened Def Con from 0.00268943 to 0.00268943
Heightened Def Con from 0.00269347 to 0.00269347
Heightened Def Con from 0.00269622 to 0.00269622
Heightened Def Con from 0.00270031 to 0.00270031
Heightened Def Con from 0.00270301 to 0.00270302
Heightened Def Con from 0.0027098 to 0.00270981
Heightened Def Con from 0.00271389 to 0.00271389
Heightened Def Con from 0.00271659 to 0.0027166
Heightened Def Con from 0.00272073 to 0.00272073
Heightened Def Con from 0.00272338 to 0.00272339
Heightened Def Con from 0.00272752 to 0.00272752
Heightened Def Con from 0.00273017 to 0.00273018
Heightened Def Con from 0.00273696 to 0.00273697
Heightened Def Con from 0.00274112 to 0.00274112
Heightened Def Con from 0.00274375 to 0.00274376
Heightened Def Con from 0.00274791 to 0.00274791
Heightened Def Con from 0.00275054 to 0.00275055
Heightened Def Con from 0.00275469 to 0.00275469
Heightened Def Con from 0.00275733 to 0.00275734
Heightened Def Con from 0.00276147 to 0.00276147
Heightened Def Con from 0.00276412 to 0.00276413
Heightened Def Con from 0.00277091 to 0.00277092
Heightened Def Con from 0.00277323 to 0.00277324
Heightened Def Con from 0.00277499 to 0.00277499
Heightened Def Con from 0.0027777 to 0.00277771
Heightened Def Con from 0.00278175 to 0.00278176
Heightened Def Con from 0.00278449 to 0.0027845
Heightened Def Con from 0.00278849 to 0.00278849
Heightened Def Con from 0.00279128 to 0.00279129
Heightened Def Con from 0.00279808 to 0.00279808
Heightened Def Con from 0.00280209 to 0.00280209
Heightened Def Con from 0.00280487 to 0.00280487
Heightened Def Con from 0.0028089 to 0.0028089
Heightened Def Con from 0.00281166 to 0.00281166
Heightened Def Con from 0.00281845 to 0.00281845
Heightened Def Con from 0.00282255 to 0.00282256
Heightened Def Con from 0.00282524 to 0.00282524
Heightened Def Con from 0.00282936 to 0.00282936
Heightened Def Con from 0.00283203 to 0.00283203
Heightened Def Con from 0.00283882 to 0.00283882
Heightened Def Con from 0.00284301 to 0.00284301
Heightened Def Con from 0.00284561 to 0.00284561
Heightened Def Con from 0.00284978 to 0.00284979
Heightened Def Con from 0.0028524 to 0.0028524
Heightened Def Con from 0.0028566 to 0.0028566
Heightened Def Con from 0.00285919 to 0.00285919
Heightened Def Con from 0.00286598 to 0.00286598
Heightened Def Con from 0.00287023 to 0.00287023
Heightened Def Con from 0.00287277 to 0.00287277
Heightened Def Con from 0.00287956 to 0.00287956
Heightened Def Con from 0.00288389 to 0.00288389
Heightened Def Con from 0.00288635 to 0.00288635
Heightened Def Con from 0.00289067 to 0.00289067
Heightened Def Con from 0.00289314 to 0.00289314
Heightened Def Con from 0.00289747 to 0.00289747
Heightened Def Con from 0.00289993 to 0.00289993
Heightened Def Con from 0.00290431 to 0.00290431
Heightened Def Con from 0.00291109 to 0.00291109
Heightened Def Con from 0.00291351 to 0.00291351
Heightened Def Con from 0.0029203 to 0.0029203
Heightened Def Con from 0.00292709 to 0.0029271
Heightened Def Con from 0.00293154 to 0.00293154
Heightened Def Con from 0.00293389 to 0.00293389
Heightened Def Con from 0.00293838 to 0.00293838
Heightened Def Con from 0.00294068 to 0.00294068
Heightened Def Con from 0.00294517 to 0.00294517
Heightened Def Con from 0.00294747 to 0.00294747
Heightened Def Con from 0.00295192 to 0.00295192
Heightened Def Con from 0.00295426 to 0.00295426
Heightened Def Con from 0.00295875 to 0.00295875
Heightened Def Con from 0.0029656 to 0.0029656
Heightened Def Con from 0.00296782 to 0.00296783
Heightened Def Con from 0.00296784 to 0.00296784
Heightened Def Con from 0.00297463 to 0.00297463
Heightened Def Con from 0.00297913 to 0.00297913
Heightened Def Con from 0.00298141 to 0.00298141
Heightened Def Con from 0.00298142 to 0.00298142
Heightened Def Con from 0.00298591 to 0.00298592
Heightened Def Con from 0.00298821 to 0.00298821
Heightened Def Con from 0.00299273 to 0.00299273
Heightened Def Con from 0.002995 to 0.002995
Heightened Def Con from 0.00299953 to 0.00299953
Heightened Def Con from 0.00300179 to 0.00300179
Heightened Def Con from 0.00300858 to 0.00300858
Heightened Def Con from 0.00301537 to 0.00301537
Heightened Def Con from 0.00301993 to 0.00301993
Heightened Def Con from 0.00302216 to 0.00302216
Heightened Def Con from 0.00302676 to 0.00302677
Heightened Def Con from 0.00302895 to 0.00302895
Heightened Def Con from 0.00303574 to 0.00303574
Heightened Def Con from 0.00304039 to 0.00304039
Heightened Def Con from 0.00304253 to 0.00304253
Heightened Def Con from 0.0030472 to 0.0030472
Heightened Def Con from 0.00304932 to 0.00304932
Heightened Def Con from 0.00305402 to 0.00305403
Heightened Def Con from 0.00305611 to 0.00305611
Heightened Def Con from 0.0030629 to 0.0030629
Heightened Def Con from 0.00306764 to 0.00306764
Heightened Def Con from 0.00306969 to 0.00306969
Heightened Def Con from 0.00307447 to 0.00307447
Heightened Def Con from 0.00307648 to 0.00307648
Heightened Def Con from 0.00308327 to 0.00308327
Heightened Def Con from 0.00308817 to 0.00308817
Heightened Def Con from 0.00309006 to 0.00309007
Heightened Def Con from 0.00309503 to 0.00309503
Heightened Def Con from 0.00309685 to 0.00309686
Heightened Def Con from 0.00310364 to 0.00310365
Heightened Def Con from 0.00310874 to 0.00310874
Heightened Def Con from 0.00311043 to 0.00311044
Heightened Def Con from 0.00311557 to 0.00311558
Heightened Def Con from 0.00311713 to 0.00311714
Heightened Def Con from 0.00312392 to 0.00312393
Heightened Def Con from 0.0031291 to 0.00312911
Heightened Def Con from 0.00313071 to 0.00313072
Heightened Def Con from 0.00313596 to 0.00313597
Heightened Def Con from 0.0031375 to 0.00313751
Heightened Def Con from 0.00314429 to 0.0031443
Heightened Def Con from 0.00314485 to 0.00314486
Heightened Def Con from 0.00314961 to 0.00314961
Heightened Def Con from 0.00315108 to 0.00315109
Heightened Def Con from 0.00315643 to 0.00315643
Heightened Def Con from 0.00315787 to 0.00315788
Heightened Def Con from 0.00316324 to 0.00316324
Heightened Def Con from 0.00316466 to 0.00316467
Heightened Def Con from 0.00317005 to 0.00317006
Heightened Def Con from 0.00317145 to 0.00317146
Heightened Def Con from 0.00317824 to 0.00317825
Heightened Def Con from 0.00318368 to 0.00318368
Heightened Def Con from 0.00318503 to 0.00318504
Heightened Def Con from 0.00319051 to 0.00319051
Heightened Def Con from 0.00319183 to 0.00319183
Heightened Def Con from 0.00319731 to 0.00319731
Heightened Def Con from 0.00319862 to 0.00319862
Heightened Def Con from 0.00320541 to 0.00320541
Heightened Def Con from 0.00321093 to 0.00321093
Heightened Def Con from 0.0032122 to 0.0032122
Heightened Def Con from 0.00321899 to 0.00321899
Heightened Def Con from 0.00322578 to 0.00322578
Heightened Def Con from 0.00323194 to 0.00323194
Heightened Def Con from 0.00323257 to 0.00323257
Heightened Def Con from 0.00323875 to 0.00323875
Heightened Def Con from 0.00323936 to 0.00323936
Heightened Def Con from 0.00324615 to 0.00324615
Heightened Def Con from 0.00325294 to 0.00325294
Heightened Def Con from 0.00325973 to 0.00325973
Heightened Def Con from 0.00326652 to 0.00326652
Heightened Def Con from 0.00327331 to 0.00327331
Heightened Def Con from 0.0032801 to 0.0032801
Heightened Def Con from 0.00328689 to 0.0032869
Heightened Def Con from 0.00329368 to 0.00329368
Heightened Def Con from 0.00330047 to 0.00330047
Heightened Def Con from 0.00330726 to 0.00330726
Heightened Def Con from 0.00331405 to 0.00331405
Heightened Def Con from 0.00332084 to 0.00332084
Heightened Def Con from 0.00332763 to 0.00332763
Heightened Def Con from 0.00333442 to 0.00333443
Heightened Def Con from 0.00334121 to 0.00334122
Heightened Def Con from 0.00334801 to 0.00334801
Heightened Def Con from 0.00334858 to 0.00334858
Heightened Def Con from 0.0033548 to 0.0033548
Heightened Def Con from 0.00335537 to 0.00335537
Heightened Def Con from 0.00336159 to 0.00336159
Heightened Def Con from 0.00336838 to 0.00336838
Heightened Def Con from 0.00337517 to 0.00337517
Heightened Def Con from 0.00338196 to 0.00338196
Heightened Def Con from 0.00338875 to 0.00338875
Heightened Def Con from 0.00339554 to 0.00339554
Heightened Def Con from 0.00340234 to 0.00340234
Heightened Def Con from 0.00340913 to 0.00340913
Heightened Def Con from 0.00341592 to 0.00341593
Heightened Def Con from 0.00341935 to 0.00341936
Heightened Def Con from 0.00342271 to 0.00342272
Heightened Def Con from 0.0034295 to 0.00342951
Heightened Def Con from 0.00343629 to 0.0034363
Heightened Def Con from 0.00344308 to 0.00344309
Heightened Def Con from 0.00344987 to 0.00344988
Heightened Def Con from 0.00345666 to 0.00345667
Heightened Def Con from 0.00346345 to 0.00346346
Heightened Def Con from 0.00347025 to 0.00347025
Heightened Def Con from 0.00347704 to 0.00347704
Heightened Def Con from 0.00348383 to 0.00348383
Heightened Def Con from 0.00349062 to 0.00349062
Heightened Def Con from 0.00349741 to 0.00349741
Heightened Def Con from 0.0035042 to 0.0035042
Heightened Def Con from 0.00351099 to 0.00351099
Heightened Def Con from 0.00351778 to 0.00351778
Heightened Def Con from 0.00352457 to 0.00352457
Heightened Def Con from 0.00353136 to 0.00353136
Heightened Def Con from 0.00353815 to 0.00353815
Heightened Def Con from 0.00354494 to 0.00354494
Heightened Def Con from 0.00355173 to 0.00355173
Heightened Def Con from 0.00355852 to 0.00355852
Heightened Def Con from 0.00356531 to 0.00356531
Heightened Def Con from 0.00356546 to 0.00356547
Heightened Def Con from 0.0035721 to 0.0035721
Heightened Def Con from 0.00357889 to 0.00357889
Heightened Def Con from 0.00358568 to 0.00358568
Heightened Def Con from 0.00359247 to 0.00359247
Heightened Def Con from 0.00359926 to 0.00359926
Heightened Def Con from 0.00360605 to 0.00360606
Heightened Def Con from 0.00361963 to 0.00361964
Heightened Def Con from 0.00362308 to 0.00362309
Heightened Def Con from 0.00362363 to 0.00362364
Heightened Def Con from 0.00362642 to 0.00362643
Heightened Def Con from 0.00363321 to 0.00363322
Heightened Def Con from 0.00364 to 0.00364001
Heightened Def Con from 0.00364679 to 0.0036468
Heightened Def Con from 0.00365358 to 0.00365359
Heightened Def Con from 0.00366037 to 0.00366038
Heightened Def Con from 0.00366716 to 0.00366717
Heightened Def Con from 0.00367395 to 0.00367396
Heightened Def Con from 0.00368074 to 0.00368075
Heightened Def Con from 0.00368753 to 0.00368754
Heightened Def Con from 0.0036881 to 0.0036881
Heightened Def Con from 0.00369433 to 0.00369433
Heightened Def Con from 0.00370112 to 0.00370112
Heightened Def Con from 0.00370168 to 0.00370169
Heightened Def Con from 0.00370791 to 0.00370792
Heightened Def Con from 0.00370847 to 0.00370848
Heightened Def Con from 0.0037147 to 0.0037147
Heightened Def Con from 0.00371527 to 0.00371527
Heightened Def Con from 0.00372149 to 0.0037215
Heightened Def Con from 0.00372828 to 0.00372828
Heightened Def Con from 0.00372884 to 0.00372885
Heightened Def Con from 0.00373507 to 0.00373508
Heightened Def Con from 0.00373563 to 0.00373564
Heightened Def Con from 0.00374187 to 0.00374187
Heightened Def Con from 0.00374243 to 0.00374244
Heightened Def Con from 0.00374866 to 0.00374866
Heightened Def Con from 0.00375545 to 0.00375545
Heightened Def Con from 0.00375601 to 0.00375602
Heightened Def Con from 0.00376224 to 0.00376224
Heightened Def Con from 0.00376903 to 0.00376903
Heightened Def Con from 0.00376959 to 0.0037696
Heightened Def Con from 0.00377582 to 0.00377582
Heightened Def Con from 0.00378261 to 0.00378261
Heightened Def Con from 0.00378317 to 0.00378318
Heightened Def Con from 0.00378941 to 0.00378941
Heightened Def Con from 0.00379619 to 0.00379619
Heightened Def Con from 0.00379676 to 0.00379676
Heightened Def Con from 0.00380298 to 0.00380298
Heightened Def Con from 0.00380355 to 0.00380355
Heightened Def Con from 0.00380977 to 0.00380977
Heightened Def Con from 0.00381033 to 0.00381034
Heightened Def Con from 0.00381656 to 0.00381656
Heightened Def Con from 0.00381713 to 0.00381713
Heightened Def Con from 0.00382335 to 0.00382336
Heightened Def Con from 0.00383014 to 0.00383015
Heightened Def Con from 0.00383693 to 0.00383694
Heightened Def Con from 0.00383749 to 0.0038375
Heightened Def Con from 0.00384372 to 0.00384372
Heightened Def Con from 0.00385051 to 0.00385052
Heightened Def Con from 0.00385107 to 0.00385108
Heightened Def Con from 0.00385731 to 0.00385731
Heightened Def Con from 0.0038641 to 0.0038641
Heightened Def Con from 0.00386466 to 0.00386467
Heightened Def Con from 0.00387089 to 0.00387089
Heightened Def Con from 0.00387768 to 0.00387768
Heightened Def Con from 0.00387824 to 0.00387825
Heightened Def Con from 0.00388447 to 0.00388447
Heightened Def Con from 0.00389126 to 0.00389126
Heightened Def Con from 0.00389182 to 0.00389183
Heightened Def Con from 0.00389805 to 0.00389805
Heightened Def Con from 0.00390484 to 0.00390484
Heightened Def Con from 0.00391163 to 0.00391163
Heightened Def Con from 0.00391842 to 0.00391842
Heightened Def Con from 0.00391898 to 0.00391899
Heightened Def Con from 0.00392521 to 0.00392521
Heightened Def Con from 0.003932 to 0.003932
Heightened Def Con from 0.00393879 to 0.00393879
Heightened Def Con from 0.00394558 to 0.00394558
Heightened Def Con from 0.00394614 to 0.00394615
Heightened Def Con from 0.00395237 to 0.00395237
Heightened Def Con from 0.00395293 to 0.00395294
Heightened Def Con from 0.00395916 to 0.00395916
Heightened Def Con from 0.00395972 to 0.00395973
Heightened Def Con from 0.00396595 to 0.00396596
Heightened Def Con from 0.00397274 to 0.00397275
Heightened Def Con from 0.00397953 to 0.00397954
Heightened Def Con from 0.00398633 to 0.00398633
Heightened Def Con from 0.00398689 to 0.00398689
Heightened Def Con from 0.00399312 to 0.00399312
Heightened Def Con from 0.00399991 to 0.00399991
Heightened Def Con from 0.00400047 to 0.00400047
Heightened Def Con from 0.0040067 to 0.0040067
Heightened Def Con from 0.00400726 to 0.00400727
Heightened Def Con from 0.00401349 to 0.00401349
Heightened Def Con from 0.00402028 to 0.00402028
Heightened Def Con from 0.00402084 to 0.00402084
Heightened Def Con from 0.00402707 to 0.00402707
Heightened Def Con from 0.00402763 to 0.00402763
Heightened Def Con from 0.00403386 to 0.00403386
Heightened Def Con from 0.00404065 to 0.00404065
Heightened Def Con from 0.00404121 to 0.00404121
Heightened Def Con from 0.00404121 to 0.00404122
Heightened Def Con from 0.00404744 to 0.00404744
Heightened Def Con from 0.004048 to 0.00404801
Heightened Def Con from 0.00405423 to 0.00405423
Heightened Def Con from 0.00405479 to 0.0040548
Heightened Def Con from 0.0040548 to 0.0040548
Heightened Def Con from 0.00406102 to 0.00406102
Heightened Def Con from 0.00406158 to 0.00406158
Heightened Def Con from 0.00406781 to 0.00406781
Heightened Def Con from 0.00406837 to 0.00406838
Heightened Def Con from 0.0040746 to 0.00407461
Heightened Def Con from 0.00408139 to 0.00408139
Heightened Def Con from 0.00408195 to 0.00408196
Heightened Def Con from 0.00408818 to 0.00408818
Heightened Def Con from 0.00409497 to 0.00409497
Heightened Def Con from 0.00409553 to 0.00409553
Heightened Def Con from 0.00410176 to 0.00410176
Heightened Def Con from 0.00410232 to 0.00410233
Heightened Def Con from 0.00410855 to 0.00410855
Heightened Def Con from 0.00410912 to 0.00410912
Heightened Def Con from 0.00411534 to 0.00411535
Heightened Def Con from 0.0041159 to 0.00411591
Heightened Def Con from 0.00412213 to 0.00412214
Heightened Def Con from 0.00412269 to 0.0041227
Heightened Def Con from 0.00412892 to 0.00412892
Heightened Def Con from 0.00412949 to 0.00412949
Heightened Def Con from 0.00413235 to 0.00413235
Heightened Def Con from 0.00413571 to 0.00413572
Heightened Def Con from 0.00413627 to 0.00413628
Heightened Def Con from 0.0041425 to 0.00414251
Heightened Def Con from 0.00414929 to 0.0041493
Heightened Def Con from 0.00414985 to 0.00414986
Heightened Def Con from 0.00415608 to 0.00415609
Heightened Def Con from 0.00415665 to 0.00415665
Heightened Def Con from 0.00416287 to 0.00416288
Heightened Def Con from 0.00416344 to 0.00416344
Heightened Def Con from 0.00416966 to 0.00416967
Heightened Def Con from 0.00417023 to 0.00417023
Heightened Def Con from 0.00417645 to 0.00417646
Heightened Def Con from 0.00417701 to 0.00417702
Heightened Def Con from 0.00418324 to 0.00418325
Heightened Def Con from 0.00419059 to 0.0041906
Heightened Def Con from 0.00419682 to 0.00419683
Heightened Def Con from 0.00419739 to 0.0041974
Heightened Def Con from 0.00420361 to 0.00420362
Heightened Def Con from 0.00420417 to 0.00420418
Heightened Def Con from 0.0042104 to 0.00421041
Heightened Def Con from 0.00421097 to 0.00421097
Heightened Def Con from 0.00421719 to 0.0042172
Heightened Def Con from 0.00421776 to 0.00421776
Heightened Def Con from 0.00422063 to 0.00422063
Heightened Def Con from 0.00422399 to 0.00422399
Heightened Def Con from 0.00422456 to 0.00422456
Heightened Def Con from 0.00423078 to 0.00423078
Heightened Def Con from 0.00423134 to 0.00423134
Heightened Def Con from 0.00423757 to 0.00423757
Heightened Def Con from 0.00424436 to 0.00424437
Heightened Def Con from 0.00424492 to 0.00424493
Heightened Def Con from 0.00425115 to 0.00425115
Heightened Def Con from 0.00425172 to 0.00425172
Heightened Def Con from 0.00425794 to 0.00425794
Heightened Def Con from 0.00425851 to 0.00425851
Heightened Def Con from 0.00426473 to 0.00426473
Heightened Def Con from 0.0042653 to 0.0042653
Heightened Def Con from 0.00427152 to 0.00427152
Heightened Def Con from 0.00427209 to 0.00427209
Heightened Def Con from 0.00427831 to 0.00427832
Heightened Def Con from 0.0042851 to 0.00428511
Heightened Def Con from 0.00429189 to 0.0042919
Heightened Def Con from 0.00429245 to 0.00429246
Heightened Def Con from 0.00429868 to 0.00429869
Heightened Def Con from 0.00429925 to 0.00429925
Heightened Def Con from 0.00430547 to 0.00430548
Heightened Def Con from 0.00430603 to 0.00430604
Heightened Def Con from 0.00431226 to 0.00431227
Heightened Def Con from 0.00431905 to 0.00431906
Heightened Def Con from 0.00431962 to 0.00431962
Heightened Def Con from 0.00432584 to 0.00432585
Heightened Def Con from 0.00432641 to 0.00432641
Heightened Def Con from 0.00433263 to 0.00433264
Heightened Def Con from 0.0043332 to 0.0043332
Heightened Def Con from 0.00433942 to 0.00433943
Heightened Def Con from 0.00434621 to 0.00434622
Heightened Def Con from 0.00434678 to 0.00434679
Heightened Def Con from 0.004353 to 0.00435301
Heightened Def Con from 0.00435357 to 0.00435357
Heightened Def Con from 0.00435979 to 0.0043598
Heightened Def Con from 0.00436036 to 0.00436036
Heightened Def Con from 0.00436658 to 0.00436659
Heightened Def Con from 0.00437337 to 0.00437338
Heightened Def Con from 0.00438016 to 0.00438017
Heightened Def Con from 0.00438696 to 0.00438696
Heightened Def Con from 0.00439375 to 0.00439375
Heightened Def Con from 0.00439432 to 0.00439432
Heightened Def Con from 0.00440054 to 0.00440054
Heightened Def Con from 0.00440732 to 0.00440733
Heightened Def Con from 0.00440788 to 0.00440789
Heightened Def Con from 0.00441411 to 0.00441412
Heightened Def Con from 0.00441467 to 0.00441468
Heightened Def Con from 0.00442091 to 0.00442091
Heightened Def Con from 0.0044277 to 0.0044277
Heightened Def Con from 0.00442826 to 0.00442826
Heightened Def Con from 0.00443449 to 0.00443449
Heightened Def Con from 0.00444128 to 0.00444128
Heightened Def Con from 0.00444184 to 0.00444184
Heightened Def Con from 0.00444807 to 0.00444807
Heightened Def Con from 0.00445486 to 0.00445486
Heightened Def Con from 0.00446165 to 0.00446165
Heightened Def Con from 0.00446221 to 0.00446222
Heightened Def Con from 0.00446844 to 0.00446844
Heightened Def Con from 0.004469 to 0.004469
Heightened Def Con from 0.00447523 to 0.00447523
Heightened Def Con from 0.00448202 to 0.00448202
Heightened Def Con from 0.00448881 to 0.00448882
Heightened Def Con from 0.00448937 to 0.00448938
Heightened Def Con from 0.0044956 to 0.00449561
Heightened Def Con from 0.00449617 to 0.00449617
Heightened Def Con from 0.00449903 to 0.00449904
Heightened Def Con from 0.0045024 to 0.0045024
Heightened Def Con from 0.00450919 to 0.00450919
Heightened Def Con from 0.00451598 to 0.00451598
Heightened Def Con from 0.00452277 to 0.00452277
Heightened Def Con from 0.00452333 to 0.00452333
Heightened Def Con from 0.00452956 to 0.00452956
Heightened Def Con from 0.00453012 to 0.00453012
Heightened Def Con from 0.00453635 to 0.00453635
Heightened Def Con from 0.00454314 to 0.00454314
Heightened Def Con from 0.0045437 to 0.0045437
Heightened Def Con from 0.00454993 to 0.00454993
Heightened Def Con from 0.00455672 to 0.00455672
Heightened Def Con from 0.00456351 to 0.00456351
Heightened Def Con from 0.0045703 to 0.0045703
Heightened Def Con from 0.00457709 to 0.0045771
Heightened Def Con from 0.00458389 to 0.0045839
Heightened Def Con from 0.00458445 to 0.00458446
Heightened Def Con from 0.00459068 to 0.00459069
Heightened Def Con from 0.00459747 to 0.00459748
Heightened Def Con from 0.00460426 to 0.00460427
Heightened Def Con from 0.00461105 to 0.00461106
Heightened Def Con from 0.00461161 to 0.00461162
Heightened Def Con from 0.00461784 to 0.00461785
Heightened Def Con from 0.00462463 to 0.00462464
Heightened Def Con from 0.00463142 to 0.00463143
Heightened Def Con from 0.00463199 to 0.00463199
Heightened Def Con from 0.00463821 to 0.00463822
Heightened Def Con from 0.00463878 to 0.00463878
Heightened Def Con from 0.004645 to 0.00464501
Heightened Def Con from 0.0046518 to 0.00465181
Heightened Def Con from 0.00465859 to 0.00465859
Heightened Def Con from 0.00465915 to 0.00465916
Heightened Def Con from 0.00466539 to 0.00466539
Heightened Def Con from 0.00466595 to 0.00466595
Heightened Def Con from 0.00467218 to 0.00467218
Heightened Def Con from 0.00467274 to 0.00467274
Heightened Def Con from 0.00467897 to 0.00467897
Heightened Def Con from 0.00467953 to 0.00467953
Heightened Def Con from 0.00468576 to 0.00468576
Heightened Def Con from 0.00468632 to 0.00468632
Heightened Def Con from 0.00469255 to 0.00469255
Heightened Def Con from 0.00469311 to 0.00469311
Heightened Def Con from 0.00469934 to 0.00469935
Heightened Def Con from 0.0046999 to 0.00469991
Heightened Def Con from 0.00470613 to 0.00470614
Heightened Def Con from 0.00471292 to 0.00471293
Heightened Def Con from 0.00471349 to 0.00471349
Heightened Def Con from 0.00471971 to 0.00471972
Heightened Def Con from 0.00472027 to 0.00472028
Heightened Def Con from 0.00472651 to 0.00472651
Heightened Def Con from 0.00472707 to 0.00472708
Heightened Def Con from 0.0047333 to 0.0047333
Heightened Def Con from 0.00474009 to 0.00474009
Heightened Def Con from 0.00474688 to 0.00474689
Heightened Def Con from 0.00474744 to 0.00474744
Heightened Def Con from 0.00475368 to 0.00475368
Heightened Def Con from 0.00475424 to 0.00475424
Heightened Def Con from 0.00476047 to 0.00476047
Heightened Def Con from 0.00476726 to 0.00476726
Heightened Def Con from 0.00476782 to 0.00476782
Heightened Def Con from 0.00477405 to 0.00477405
Heightened Def Con from 0.00478084 to 0.00478084
Heightened Def Con from 0.00478763 to 0.00478763
Heightened Def Con from 0.00478819 to 0.0047882
Heightened Def Con from 0.00479442 to 0.00479442
Heightened Def Con from 0.00480121 to 0.00480121
Heightened Def Con from 0.00480177 to 0.00480178
Heightened Def Con from 0.004808 to 0.004808
Heightened Def Con from 0.00481479 to 0.00481479
Heightened Def Con from 0.00482158 to 0.00482158
Heightened Def Con from 0.00482214 to 0.00482215
Heightened Def Con from 0.00482837 to 0.00482837
Heightened Def Con from 0.00482893 to 0.00482893
Heightened Def Con from 0.00483516 to 0.00483516
Heightened Def Con from 0.00484195 to 0.00484195
Heightened Def Con from 0.00484874 to 0.00484874
Heightened Def Con from 0.00485553 to 0.00485553
Heightened Def Con from 0.00485609 to 0.0048561
Heightened Def Con from 0.00486232 to 0.00486232
Heightened Def Con from 0.00486233 to 0.00486233
Heightened Def Con from 0.00486288 to 0.00486289
Heightened Def Con from 0.00486911 to 0.00486911
Heightened Def Con from 0.0048759 to 0.0048759
Heightened Def Con from 0.00488269 to 0.00488269
Heightened Def Con from 0.00488326 to 0.00488326
Heightened Def Con from 0.00488948 to 0.00488949
Heightened Def Con from 0.00489005 to 0.00489005
Heightened Def Con from 0.00489627 to 0.00489627
Heightened Def Con from 0.00490306 to 0.00490307
Heightened Def Con from 0.00490362 to 0.00490363
Heightened Def Con from 0.00490985 to 0.00490986
Heightened Def Con from 0.00491041 to 0.00491042
Heightened Def Con from 0.00491664 to 0.00491665
Heightened Def Con from 0.0049172 to 0.00491721
Heightened Def Con from 0.00492343 to 0.00492344
Heightened Def Con from 0.00492686 to 0.00492687
Heightened Def Con from 0.00493022 to 0.00493023
Heightened Def Con from 0.00493079 to 0.00493079
Heightened Def Con from 0.00493701 to 0.00493702
Heightened Def Con from 0.00493758 to 0.00493758
Heightened Def Con from 0.0049438 to 0.00494381
Heightened Def Con from 0.00494437 to 0.00494437
Heightened Def Con from 0.00495059 to 0.0049506
Heightened Def Con from 0.00495116 to 0.00495116
Heightened Def Con from 0.00495738 to 0.00495739
Heightened Def Con from 0.00495795 to 0.00495795
Heightened Def Con from 0.00496417 to 0.00496418
Heightened Def Con from 0.00496474 to 0.00496474
Heightened Def Con from 0.00497096 to 0.00497097
Heightened Def Con from 0.00497776 to 0.00497776
Heightened Def Con from 0.00498455 to 0.00498455
Heightened Def Con from 0.00499134 to 0.00499134
Heightened Def Con from 0.00499813 to 0.00499813
Heightened Def Con from 0.00500493 to 0.00500493
Heightened Def Con from 0.00501172 to 0.00501172
Heightened Def Con from 0.00501851 to 0.00501851
Heightened Def Con from 0.0050253 to 0.0050253
Heightened Def Con from 0.00502587 to 0.00502587
Heightened Def Con from 0.00503209 to 0.00503209
Heightened Def Con from 0.00503265 to 0.00503265
Heightened Def Con from 0.00503888 to 0.00503888
Heightened Def Con from 0.00504567 to 0.00504567
Heightened Def Con from 0.00505246 to 0.00505246
Heightened Def Con from 0.00505925 to 0.00505925
Heightened Def Con from 0.00506604 to 0.00506604
Heightened Def Con from 0.00506661 to 0.00506661
Heightened Def Con from 0.00507283 to 0.00507283
Heightened Def Con from 0.00507339 to 0.00507339
Heightened Def Con from 0.00507962 to 0.00507963
Heightened Def Con from 0.00508642 to 0.00508642
Heightened Def Con from 0.00508698 to 0.00508698
Heightened Def Con from 0.00509321 to 0.00509321
Heightened Def Con from 0.00509377 to 0.00509377
Heightened Def Con from 0.0051 to 0.0051
Heightened Def Con from 0.00510679 to 0.0051068
Heightened Def Con from 0.00510736 to 0.00510736
Heightened Def Con from 0.00511358 to 0.00511359
Heightened Def Con from 0.00512037 to 0.00512038
Heightened Def Con from 0.00512094 to 0.00512095
Heightened Def Con from 0.0051238 to 0.00512381
Heightened Def Con from 0.00512716 to 0.00512717
Heightened Def Con from 0.00513395 to 0.00513396
Heightened Def Con from 0.00514074 to 0.00514075
Heightened Def Con from 0.00514753 to 0.00514754
Heightened Def Con from 0.0051481 to 0.0051481
Heightened Def Con from 0.00515432 to 0.00515433
Heightened Def Con from 0.00516111 to 0.00516112
Heightened Def Con from 0.0051679 to 0.00516791
Heightened Def Con from 0.00516847 to 0.00516847
Heightened Def Con from 0.00517469 to 0.0051747
Heightened Def Con from 0.00518149 to 0.00518149
Heightened Def Con from 0.00518828 to 0.00518828
Heightened Def Con from 0.00518884 to 0.00518885
Heightened Def Con from 0.00519507 to 0.00519507
Heightened Def Con from 0.00519563 to 0.00519563
Heightened Def Con from 0.00520186 to 0.00520186
Heightened Def Con from 0.00520865 to 0.00520865
Heightened Def Con from 0.00520921 to 0.00520921
Heightened Def Con from 0.00521544 to 0.00521544
Heightened Def Con from 0.00522223 to 0.00522223
Heightened Def Con from 0.00522279 to 0.00522279
Heightened Def Con from 0.00522902 to 0.00522902
Heightened Def Con from 0.00522958 to 0.00522959
Heightened Def Con from 0.00523581 to 0.00523581
Heightened Def Con from 0.00523637 to 0.00523637
Heightened Def Con from 0.0052426 to 0.0052426
Heightened Def Con from 0.00524939 to 0.00524939
Heightened Def Con from 0.00524995 to 0.00524995
Heightened Def Con from 0.00525618 to 0.00525618
Heightened Def Con from 0.00525675 to 0.00525675
Heightened Def Con from 0.00526297 to 0.00526297
Heightened Def Con from 0.00526976 to 0.00526976
Heightened Def Con from 0.00527656 to 0.00527656
Heightened Def Con from 0.00528335 to 0.00528335
Heightened Def Con from 0.00528391 to 0.00528392
Heightened Def Con from 0.00529014 to 0.00529014
Heightened Def Con from 0.0052907 to 0.0052907
Heightened Def Con from 0.00529693 to 0.00529693
Heightened Def Con from 0.00530372 to 0.00530373
Heightened Def Con from 0.00531051 to 0.00531052
Heightened Def Con from 0.00531107 to 0.00531108
Heightened Def Con from 0.0053173 to 0.00531731
Heightened Def Con from 0.00531786 to 0.00531787
Heightened Def Con from 0.00532409 to 0.0053241
Heightened Def Con from 0.00532466 to 0.00532466
Heightened Def Con from 0.00533088 to 0.00533089
Heightened Def Con from 0.00533767 to 0.00533768
Heightened Def Con from 0.00533824 to 0.00533824
Heightened Def Con from 0.00534446 to 0.00534447
Heightened Def Con from 0.00535125 to 0.00535126
Heightened Def Con from 0.00535804 to 0.00535805
Heightened Def Con from 0.00536483 to 0.00536484
Heightened Def Con from 0.00537162 to 0.00537163
Heightened Def Con from 0.00537219 to 0.00537219
Heightened Def Con from 0.00537841 to 0.00537842
Heightened Def Con from 0.00537898 to 0.00537898
Heightened Def Con from 0.0053852 to 0.00538521
Heightened Def Con from 0.00539199 to 0.005392
Heightened Def Con from 0.00539879 to 0.00539879
Heightened Def Con from 0.00539935 to 0.00539935
Heightened Def Con from 0.00540558 to 0.00540558
Heightened Def Con from 0.00541237 to 0.00541237
Heightened Def Con from 0.00541916 to 0.00541916
Heightened Def Con from 0.00541972 to 0.00541972
Heightened Def Con from 0.00542595 to 0.00542595
Heightened Def Con from 0.00542651 to 0.00542652
Heightened Def Con from 0.00543274 to 0.00543274
Heightened Def Con from 0.0054333 to 0.0054333
Heightened Def Con from 0.00543953 to 0.00543954
Heightened Def Con from 0.00544009 to 0.0054401
Heightened Def Con from 0.00544632 to 0.00544633
Heightened Def Con from 0.00545311 to 0.00545312
Heightened Def Con from 0.00545368 to 0.00545368
Heightened Def Con from 0.0054599 to 0.00545991
Heightened Def Con from 0.00546669 to 0.0054667
Heightened Def Con from 0.00547348 to 0.00547349
Heightened Def Con from 0.00548027 to 0.00548028
Heightened Def Con from 0.00548084 to 0.00548085
Heightened Def Con from 0.00548706 to 0.00548707
Heightened Def Con from 0.00548763 to 0.00548763
Heightened Def Con from 0.00549386 to 0.00549387
Heightened Def Con from 0.00549443 to 0.00549443
Heightened Def Con from 0.00550065 to 0.00550066
Heightened Def Con from 0.00550122 to 0.00550122
Heightened Def Con from 0.00550744 to 0.00550745
Heightened Def Con from 0.00550801 to 0.00550801
Heightened Def Con from 0.00551424 to 0.00551424
Heightened Def Con from 0.0055148 to 0.00551481
Heightened Def Con from 0.00552103 to 0.00552103
Heightened Def Con from 0.00552159 to 0.0055216
Heightened Def Con from 0.00552782 to 0.00552782
Heightened Def Con from 0.00553461 to 0.00553461
Heightened Def Con from 0.0055414 to 0.0055414
Heightened Def Con from 0.00554196 to 0.00554197
Heightened Def Con from 0.00554819 to 0.00554819
Heightened Def Con from 0.00555498 to 0.00555498
Heightened Def Con from 0.00555554 to 0.00555554
Heightened Def Con from 0.00556177 to 0.00556177
Heightened Def Con from 0.00556856 to 0.00556856
Heightened Def Con from 0.00557535 to 0.00557535
Heightened Def Con from 0.00557591 to 0.00557592
Heightened Def Con from 0.00558214 to 0.00558214
Heightened Def Con from 0.00558271 to 0.00558271
Heightened Def Con from 0.00558893 to 0.00558894
Heightened Def Con from 0.00559572 to 0.00559573
Heightened Def Con from 0.00560252 to 0.00560252
Heightened Def Con from 0.00560308 to 0.00560309
Heightened Def Con from 0.00560931 to 0.00560931
Heightened Def Con from 0.00560987 to 0.00560988
Heightened Def Con from 0.0056161 to 0.0056161
Heightened Def Con from 0.00561666 to 0.00561666
Heightened Def Con from 0.00562289 to 0.00562289
Heightened Def Con from 0.00562346 to 0.00562346
Heightened Def Con from 0.00562968 to 0.00562969
Heightened Def Con from 0.00563647 to 0.00563648
Heightened Def Con from 0.00563704 to 0.00563704
Heightened Def Con from 0.00564326 to 0.00564327
Heightened Def Con from 0.00564383 to 0.00564383
Heightened Def Con from 0.00565006 to 0.00565006
Heightened Def Con from 0.00565685 to 0.00565685
Heightened Def Con from 0.00565741 to 0.00565742
Heightened Def Con from 0.00566364 to 0.00566364
Heightened Def Con from 0.0056642 to 0.00566421
Heightened Def Con from 0.00567043 to 0.00567043
Heightened Def Con from 0.00567099 to 0.00567099
Heightened Def Con from 0.00567722 to 0.00567722
Heightened Def Con from 0.00567778 to 0.00567779
Heightened Def Con from 0.00568401 to 0.00568401
Heightened Def Con from 0.00568458 to 0.00568458
Heightened Def Con from 0.0056908 to 0.0056908
Heightened Def Con from 0.00569136 to 0.00569136
Heightened Def Con from 0.00569759 to 0.00569759
Heightened Def Con from 0.00569815 to 0.00569816
Heightened Def Con from 0.00570438 to 0.00570438
Heightened Def Con from 0.00571117 to 0.00571118
Heightened Def Con from 0.00571796 to 0.00571797
Heightened Def Con from 0.00572475 to 0.00572476
Heightened Def Con from 0.00573154 to 0.00573155
Heightened Def Con from 0.00573211 to 0.00573212
Heightened Def Con from 0.00573498 to 0.00573498
Heightened Def Con from 0.00573834 to 0.00573834
Heightened Def Con from 0.00574513 to 0.00574514
Heightened Def Con from 0.00574569 to 0.0057457
Heightened Def Con from 0.00575192 to 0.00575192
Heightened Def Con from 0.00575248 to 0.00575249
Heightened Def Con from 0.00575871 to 0.00575872
Heightened Def Con from 0.00575927 to 0.00575928
Heightened Def Con from 0.0057655 to 0.00576551
Heightened Def Con from 0.00577229 to 0.0057723
Heightened Def Con from 0.00577908 to 0.00577909
Heightened Def Con from 0.00577965 to 0.00577965
Heightened Def Con from 0.00578587 to 0.00578588
Heightened Def Con from 0.00578643 to 0.00578643
Heightened Def Con from 0.00579266 to 0.00579267
Heightened Def Con from 0.00579322 to 0.00579323
Heightened Def Con from 0.00579945 to 0.00579946
Heightened Def Con from 0.00580624 to 0.00580625
Heightened Def Con from 0.00581303 to 0.00581304
Heightened Def Con from 0.00581982 to 0.00581983
Heightened Def Con from 0.00582039 to 0.00582039
Heightened Def Con from 0.00582661 to 0.00582662
Heightened Def Con from 0.0058334 to 0.00583341
Heightened Def Con from 0.0058402 to 0.0058402
Heightened Def Con from 0.00584077 to 0.00584077
Heightened Def Con from 0.00584699 to 0.00584699
Heightened Def Con from 0.00585378 to 0.00585379
Heightened Def Con from 0.00586057 to 0.00586057
Heightened Def Con from 0.00586113 to 0.00586113
Heightened Def Con from 0.00586736 to 0.00586736
Heightened Def Con from 0.00586793 to 0.00586793
Heightened Def Con from 0.00587415 to 0.00587415
Heightened Def Con from 0.00587472 to 0.00587472
Heightened Def Con from 0.00587758 to 0.00587758
Heightened Def Con from 0.00588094 to 0.00588095
Heightened Def Con from 0.0058815 to 0.00588151
Heightened Def Con from 0.00588773 to 0.00588774
Heightened Def Con from 0.0058883 to 0.0058883
Heightened Def Con from 0.00589452 to 0.00589453
Heightened Def Con from 0.00589508 to 0.00589509
Heightened Def Con from 0.00590131 to 0.00590132
Heightened Def Con from 0.00590187 to 0.00590188
Heightened Def Con from 0.0059081 to 0.00590811
Heightened Def Con from 0.00590829 to 0.00590829
Heightened Def Con from 0.00590866 to 0.00590867
Heightened Def Con from 0.00591489 to 0.0059149
Heightened Def Con from 0.00592168 to 0.00592169
Heightened Def Con from 0.00592225 to 0.00592225
Heightened Def Con from 0.00592847 to 0.00592848
Heightened Def Con from 0.00592903 to 0.00592904
Heightened Def Con from 0.00593527 to 0.00593527
Heightened Def Con from 0.00594206 to 0.00594206
Heightened Def Con from 0.00594885 to 0.00594885
Heightened Def Con from 0.00594941 to 0.00594941
Heightened Def Con from 0.00595564 to 0.00595564
Heightened Def Con from 0.00596243 to 0.00596244
Heightened Def Con from 0.00596299 to 0.00596299
Heightened Def Con from 0.00596922 to 0.00596922
Heightened Def Con from 0.00597601 to 0.00597602
Heightened Def Con from 0.00597657 to 0.00597657
Heightened Def Con from 0.0059828 to 0.0059828
Heightened Def Con from 0.00598959 to 0.00598959
Heightened Def Con from 0.00599016 to 0.00599016
Heightened Def Con from 0.00599638 to 0.00599639
Heightened Def Con from 0.00600317 to 0.00600317
Heightened Def Con from 0.00600374 to 0.00600374
Heightened Def Con from 0.00600996 to 0.00600996
Heightened Def Con from 0.00601053 to 0.00601053
Heightened Def Con from 0.00601675 to 0.00601675
Heightened Def Con from 0.00601732 to 0.00601732
Heightened Def Con from 0.00601732 to 0.00601733
Heightened Def Con from 0.00602354 to 0.00602355
Heightened Def Con from 0.00602411 to 0.00602411
Heightened Def Con from 0.00603033 to 0.00603034
Heightened Def Con from 0.00603089 to 0.0060309
Heightened Def Con from 0.00603712 to 0.00603713
Heightened Def Con from 0.00604391 to 0.00604392
Heightened Def Con from 0.0060507 to 0.00605071
Heightened Def Con from 0.00605749 to 0.0060575
Heightened Def Con from 0.00606428 to 0.00606429
Heightened Def Con from 0.00607107 to 0.00607108
Heightened Def Con from 0.00607786 to 0.00607787
Heightened Def Con from 0.00607843 to 0.00607843
Heightened Def Con from 0.00608465 to 0.00608466
Heightened Def Con from 0.00608522 to 0.00608522
Heightened Def Con from 0.00609823 to 0.00609824
Heightened Def Con from 0.00610502 to 0.00610503
Heightened Def Con from 0.00611181 to 0.00611182
Heightened Def Con from 0.00611238 to 0.00611238
Heightened Def Con from 0.0061186 to 0.00611861
Heightened Def Con from 0.00612539 to 0.0061254
Heightened Def Con from 0.00613218 to 0.00613219
Heightened Def Con from 0.00613897 to 0.00613898
Heightened Def Con from 0.00613954 to 0.00613954
Heightened Def Con from 0.00614576 to 0.00614577
Heightened Def Con from 0.00615255 to 0.00615256
Heightened Def Con from 0.00615312 to 0.00615312
Heightened Def Con from 0.00615934 to 0.00615935
Heightened Def Con from 0.00616614 to 0.00616614
Heightened Def Con from 0.00616669 to 0.0061667
Heightened Def Con from 0.00617293 to 0.00617294
Heightened Def Con from 0.0061735 to 0.0061735
Heightened Def Con from 0.00617972 to 0.00617973
Heightened Def Con from 0.00618029 to 0.0061803
Heightened Def Con from 0.00618651 to 0.00618652
Heightened Def Con from 0.00618707 to 0.00618708
Heightened Def Con from 0.0061933 to 0.00619331
Heightened Def Con from 0.00620009 to 0.0062001
Heightened Def Con from 0.00620066 to 0.00620066
Heightened Def Con from 0.00620688 to 0.00620689
Heightened Def Con from 0.00621031 to 0.00621032
Heightened Def Con from 0.00621367 to 0.00621368
Heightened Def Con from 0.00621424 to 0.00621425
Heightened Def Con from 0.00622046 to 0.00622047
Heightened Def Con from 0.00622103 to 0.00622104
Heightened Def Con from 0.00622725 to 0.00622726
Heightened Def Con from 0.00622782 to 0.00622782
Heightened Def Con from 0.00623404 to 0.00623405
Heightened Def Con from 0.00624083 to 0.00624084
Heightened Def Con from 0.00624762 to 0.00624763
Heightened Def Con from 0.00624819 to 0.00624819
Heightened Def Con from 0.00625442 to 0.00625442
Heightened Def Con from 0.00625498 to 0.00625499
Heightened Def Con from 0.00626121 to 0.00626121
Heightened Def Con from 0.006268 to 0.006268
Heightened Def Con from 0.00626856 to 0.00626857
Heightened Def Con from 0.00627479 to 0.00627479
Heightened Def Con from 0.00628158 to 0.00628159
Heightened Def Con from 0.00628215 to 0.00628215
Heightened Def Con from 0.00628838 to 0.00628838
Heightened Def Con from 0.00629517 to 0.00629517
Heightened Def Con from 0.00629573 to 0.00629574
Heightened Def Con from 0.00630196 to 0.00630196
Heightened Def Con from 0.00630252 to 0.00630252
Heightened Def Con from 0.00630875 to 0.00630875
Heightened Def Con from 0.00631554 to 0.00631555
Heightened Def Con from 0.00631611 to 0.00631611
Heightened Def Con from 0.00632233 to 0.00632234
Heightened Def Con from 0.0063229 to 0.0063229
Heightened Def Con from 0.00632912 to 0.00632913
Heightened Def Con from 0.00632969 to 0.00632969
Heightened Def Con from 0.00633591 to 0.00633592
Heightened Def Con from 0.00633648 to 0.00633649
Heightened Def Con from 0.0063427 to 0.00634271
Heightened Def Con from 0.00634327 to 0.00634327
Heightened Def Con from 0.00634614 to 0.00634614
Heightened Def Con from 0.0063495 to 0.00634951
Heightened Def Con from 0.00635007 to 0.00635007
Heightened Def Con from 0.00635629 to 0.0063563
Heightened Def Con from 0.00635686 to 0.00635686
Heightened Def Con from 0.00636309 to 0.00636309
Heightened Def Con from 0.00636366 to 0.00636366
Heightened Def Con from 0.00636988 to 0.00636988
Heightened Def Con from 0.00637667 to 0.00637667
Heightened Def Con from 0.00638346 to 0.00638346
Heightened Def Con from 0.00639025 to 0.00639025
Heightened Def Con from 0.00639082 to 0.00639082
Heightened Def Con from 0.00639704 to 0.00639705
Heightened Def Con from 0.0063976 to 0.00639761
Heightened Def Con from 0.00640383 to 0.00640383
Heightened Def Con from 0.00641062 to 0.00641063
Heightened Def Con from 0.00641742 to 0.00641742
Heightened Def Con from 0.00642421 to 0.00642421
Heightened Def Con from 0.006431 to 0.006431
Heightened Def Con from 0.00643779 to 0.0064378
Heightened Def Con from 0.00643836 to 0.00643836
Heightened Def Con from 0.00644459 to 0.0064446
Heightened Def Con from 0.00645138 to 0.00645139
Heightened Def Con from 0.00645817 to 0.00645818
Heightened Def Con from 0.00646496 to 0.00646497
Heightened Def Con from 0.00647175 to 0.00647175
Heightened Def Con from 0.00647854 to 0.00647855
Heightened Def Con from 0.00648533 to 0.00648533
Heightened Def Con from 0.00649212 to 0.00649212
Heightened Def Con from 0.00649891 to 0.00649892
Heightened Def Con from 0.0065057 to 0.00650571
Heightened Def Con from 0.00651249 to 0.0065125
Heightened Def Con from 0.00652607 to 0.00652608
Heightened Def Con from 0.00653287 to 0.00653287
Heightened Def Con from 0.00653966 to 0.00653966
Heightened Def Con from 0.00653967 to 0.00653967
Heightened Def Con from 0.00654645 to 0.00654645
Heightened Def Con from 0.00655324 to 0.00655324
Heightened Def Con from 0.00656003 to 0.00656003
Heightened Def Con from 0.00656682 to 0.00656683
Heightened Def Con from 0.00657362 to 0.00657362
Heightened Def Con from 0.00658041 to 0.00658041
Heightened Def Con from 0.0065872 to 0.00658721
Heightened Def Con from 0.006594 to 0.006594
Heightened Def Con from 0.00660079 to 0.00660079
Heightened Def Con from 0.00660425 to 0.00660425
Heightened Def Con from 0.00660758 to 0.00660758
Heightened Def Con from 0.00661437 to 0.00661438
Heightened Def Con from 0.00662116 to 0.00662117
Heightened Def Con from 0.00662796 to 0.00662796
Heightened Def Con from 0.00663475 to 0.00663475
Heightened Def Con from 0.00664154 to 0.00664154
Heightened Def Con from 0.00664833 to 0.00664833
Heightened Def Con from 0.00665512 to 0.00665512
Heightened Def Con from 0.00666191 to 0.00666191
Heightened Def Con from 0.0066674 to 0.00666741
Heightened Def Con from 0.00666741 to 0.00666741
Heightened Def Con from 0.0066687 to 0.0066687
Heightened Def Con from 0.00667549 to 0.00667549
Heightened Def Con from 0.00667946 to 0.00667946
Heightened Def Con from 0.00668228 to 0.00668228
Heightened Def Con from 0.00668625 to 0.00668625
Heightened Def Con from 0.00668907 to 0.00668907
Heightened Def Con from 0.00669303 to 0.00669304
Heightened Def Con from 0.00669586 to 0.00669587
Heightened Def Con from 0.00670265 to 0.00670265
Heightened Def Con from 0.00670944 to 0.00670944
Heightened Def Con from 0.00671623 to 0.00671623
Heightened Def Con from 0.00672302 to 0.00672303
Heightened Def Con from 0.00672982 to 0.00672982
Heightened Def Con from 0.00673661 to 0.00673661
Heightened Def Con from 0.0067434 to 0.0067434
Heightened Def Con from 0.00675019 to 0.00675019
Heightened Def Con from 0.00676377 to 0.00676377
Heightened Def Con from 0.00677056 to 0.00677056
Heightened Def Con from 0.00677735 to 0.00677736
Heightened Def Con from 0.00678414 to 0.00678415
Heightened Def Con from 0.00679093 to 0.00679093
Heightened Def Con from 0.00679772 to 0.00679773
Heightened Def Con from 0.00680451 to 0.00680452
Heightened Def Con from 0.0068113 to 0.0068113
Heightened Def Con from 0.00681809 to 0.0068181
Heightened Def Con from 0.00682489 to 0.00682489
Heightened Def Con from 0.00683168 to 0.00683168
Heightened Def Con from 0.00683847 to 0.00683847
Heightened Def Con from 0.00684526 to 0.00684526
Heightened Def Con from 0.00684914 to 0.00684915
Heightened Def Con from 0.00685205 to 0.00685205
Heightened Def Con from 0.00685884 to 0.00685884
Heightened Def Con from 0.00686563 to 0.00686563
Heightened Def Con from 0.00687242 to 0.00687242
Heightened Def Con from 0.00687921 to 0.00687921
Heightened Def Con from 0.006886 to 0.006886
Heightened Def Con from 0.00689279 to 0.00689279
Heightened Def Con from 0.00689958 to 0.00689958
Heightened Def Con from 0.00690637 to 0.00690637
Heightened Def Con from 0.00691316 to 0.00691316
Heightened Def Con from 0.00691995 to 0.00691996
Heightened Def Con from 0.00692674 to 0.00692674
Heightened Def Con from 0.00693017 to 0.00693017
Heightened Def Con from 0.00693353 to 0.00693354
Heightened Def Con from 0.00694032 to 0.00694032
Heightened Def Con from 0.00694712 to 0.00694712
Heightened Def Con from 0.00695391 to 0.00695391
Heightened Def Con from 0.00695788 to 0.00695788
Heightened Def Con from 0.0069607 to 0.00696071
Heightened Def Con from 0.00696749 to 0.0069675
Heightened Def Con from 0.00697428 to 0.00697429
Heightened Def Con from 0.00697825 to 0.00697825
Heightened Def Con from 0.00698107 to 0.00698108
Heightened Def Con from 0.00698504 to 0.00698504
Heightened Def Con from 0.00698786 to 0.00698787
Heightened Def Con from 0.00699183 to 0.00699183
Heightened Def Con from 0.00699465 to 0.00699466
Heightened Def Con from 0.00699862 to 0.00699862
Heightened Def Con from 0.00700144 to 0.00700145
Heightened Def Con from 0.00700541 to 0.00700542
Heightened Def Con from 0.00700823 to 0.00700824
Heightened Def Con from 0.00701502 to 0.00701503
Heightened Def Con from 0.00702181 to 0.00702182
Heightened Def Con from 0.00702579 to 0.00702579
Heightened Def Con from 0.0070286 to 0.00702861
Heightened Def Con from 0.00703257 to 0.00703257
Heightened Def Con from 0.00703539 to 0.0070354
Heightened Def Con from 0.00703936 to 0.00703936
Heightened Def Con from 0.00704218 to 0.00704219
Heightened Def Con from 0.00704615 to 0.00704616
Heightened Def Con from 0.00704897 to 0.00704898
Heightened Def Con from 0.00705294 to 0.00705294
Heightened Def Con from 0.00705576 to 0.00705577
Heightened Def Con from 0.00705973 to 0.00705973
Heightened Def Con from 0.00706256 to 0.00706256
Heightened Def Con from 0.00706652 to 0.00706653
Heightened Def Con from 0.00706935 to 0.00706936
Heightened Def Con from 0.00707614 to 0.00707615
Heightened Def Con from 0.00708293 to 0.00708294
Heightened Def Con from 0.0070869 to 0.00708691
Heightened Def Con from 0.00708972 to 0.00708973
Heightened Def Con from 0.00709652 to 0.00709652
Heightened Def Con from 0.00710048 to 0.00710049
Heightened Def Con from 0.00710331 to 0.00710331
Heightened Def Con from 0.00710727 to 0.00710728
Heightened Def Con from 0.0071101 to 0.0071101
Heightened Def Con from 0.00711406 to 0.00711406
Heightened Def Con from 0.00711689 to 0.00711689
Heightened Def Con from 0.00712085 to 0.00712085
Heightened Def Con from 0.00712368 to 0.00712368
Heightened Def Con from 0.00713047 to 0.00713048
Heightened Def Con from 0.00713726 to 0.00713727
Heightened Def Con from 0.00714405 to 0.00714406
Heightened Def Con from 0.00715084 to 0.00715084
Heightened Def Con from 0.0071548 to 0.0071548
Heightened Def Con from 0.00715763 to 0.00715763
Heightened Def Con from 0.00716106 to 0.00716106
Heightened Def Con from 0.00716442 to 0.00716443
Heightened Def Con from 0.00717121 to 0.00717121
Heightened Def Con from 0.00717517 to 0.00717518
Heightened Def Con from 0.007178 to 0.00717801
Heightened Def Con from 0.00718196 to 0.00718197
Heightened Def Con from 0.00718479 to 0.00718479
Heightened Def Con from 0.00718876 to 0.00718876
Heightened Def Con from 0.00719158 to 0.00719159
Heightened Def Con from 0.00719555 to 0.00719555
Heightened Def Con from 0.00719838 to 0.00719838
Heightened Def Con from 0.00720517 to 0.00720518
Heightened Def Con from 0.00720914 to 0.00720914
Heightened Def Con from 0.00721196 to 0.00721197
Heightened Def Con from 0.00721876 to 0.00721876
Heightened Def Con from 0.00722555 to 0.00722555
Heightened Def Con from 0.00723234 to 0.00723234
Heightened Def Con from 0.00723913 to 0.00723913
Heightened Def Con from 0.00724309 to 0.00724309
Heightened Def Con from 0.00724592 to 0.00724592
Heightened Def Con from 0.00724988 to 0.00724988
Heightened Def Con from 0.00725271 to 0.00725271
Heightened Def Con from 0.0072595 to 0.0072595
Heightened Def Con from 0.00726629 to 0.00726629
Heightened Def Con from 0.00727026 to 0.00727026
Heightened Def Con from 0.00727308 to 0.00727309
Heightened Def Con from 0.00727651 to 0.00727652
Heightened Def Con from 0.00727705 to 0.00727705
Heightened Def Con from 0.00727987 to 0.00727988
Heightened Def Con from 0.00728384 to 0.00728384
Heightened Def Con from 0.00728666 to 0.00728667
Heightened Def Con from 0.00729063 to 0.00729063
Heightened Def Con from 0.00729345 to 0.00729346
Heightened Def Con from 0.00730024 to 0.00730025
Heightened Def Con from 0.00730703 to 0.00730704
Heightened Def Con from 0.007311 to 0.007311
Heightened Def Con from 0.00731382 to 0.00731383
Heightened Def Con from 0.00731779 to 0.00731779
Heightened Def Con from 0.00732061 to 0.00732062
Heightened Def Con from 0.00732458 to 0.00732458
Heightened Def Con from 0.0073274 to 0.00732741
Heightened Def Con from 0.0073342 to 0.0073342
Heightened Def Con from 0.00733816 to 0.00733817
Heightened Def Con from 0.00734099 to 0.007341
Heightened Def Con from 0.00734495 to 0.00734496
Heightened Def Con from 0.00734778 to 0.00734778
Heightened Def Con from 0.00735175 to 0.00735175
Heightened Def Con from 0.00735457 to 0.00735458
Heightened Def Con from 0.00735853 to 0.00735854
Heightened Def Con from 0.00736136 to 0.00736136
Heightened Def Con from 0.00736532 to 0.00736533
Heightened Def Con from 0.00736815 to 0.00736816
Heightened Def Con from 0.00737212 to 0.00737212
Heightened Def Con from 0.00737494 to 0.00737495
Heightened Def Con from 0.00738173 to 0.00738174
Heightened Def Con from 0.00738569 to 0.0073857
Heightened Def Con from 0.00738852 to 0.00738853
Heightened Def Con from 0.00739249 to 0.00739249
Heightened Def Con from 0.00739531 to 0.00739532
Heightened Def Con from 0.0074021 to 0.00740211
Heightened Def Con from 0.00740606 to 0.00740607
Heightened Def Con from 0.00740889 to 0.0074089
Heightened Def Con from 0.00741568 to 0.00741569
Heightened Def Con from 0.00741965 to 0.00741965
Heightened Def Con from 0.00742247 to 0.00742248
Heightened Def Con from 0.00742644 to 0.00742644
Heightened Def Con from 0.00742926 to 0.00742927
Heightened Def Con from 0.00743323 to 0.00743324
Heightened Def Con from 0.00743605 to 0.00743606
Heightened Def Con from 0.00744002 to 0.00744002
Heightened Def Con from 0.00744285 to 0.00744285
Heightened Def Con from 0.00744681 to 0.00744681
Heightened Def Con from 0.00744964 to 0.00744964
Heightened Def Con from 0.0074536 to 0.0074536
Heightened Def Con from 0.00745643 to 0.00745643
Heightened Def Con from 0.00746039 to 0.00746039
Heightened Def Con from 0.00746322 to 0.00746322
Heightened Def Con from 0.00746718 to 0.00746719
Heightened Def Con from 0.00747001 to 0.00747001
Heightened Def Con from 0.00747397 to 0.00747397
Heightened Def Con from 0.0074768 to 0.0074768
Heightened Def Con from 0.00748077 to 0.00748077
Heightened Def Con from 0.00748359 to 0.00748359
Heightened Def Con from 0.00748756 to 0.00748756
Heightened Def Con from 0.00749038 to 0.00749039
Heightened Def Con from 0.00749435 to 0.00749436
Heightened Def Con from 0.00749717 to 0.00749718
Heightened Def Con from 0.00750114 to 0.00750114
Heightened Def Con from 0.00750396 to 0.00750397
Heightened Def Con from 0.00750793 to 0.00750793
Heightened Def Con from 0.00751075 to 0.00751076
Heightened Def Con from 0.00751472 to 0.00751472
Heightened Def Con from 0.00751754 to 0.00751755
Heightened Def Con from 0.00752151 to 0.00752151
Heightened Def Con from 0.00752434 to 0.00752434
Heightened Def Con from 0.00752503 to 0.00752503
Heightened Def Con from 0.00753113 to 0.00753113
Heightened Def Con from 0.00753508 to 0.00753509
Heightened Def Con from 0.00753792 to 0.00753792
Heightened Def Con from 0.00754188 to 0.00754188
Heightened Def Con from 0.00754471 to 0.00754471
Heightened Def Con from 0.00754867 to 0.00754867
Heightened Def Con from 0.0075515 to 0.0075515
Heightened Def Con from 0.00755493 to 0.00755493
Heightened Def Con from 0.00755546 to 0.00755547
Heightened Def Con from 0.00755829 to 0.00755829
Heightened Def Con from 0.00756225 to 0.00756225
Heightened Def Con from 0.00756508 to 0.00756508
Heightened Def Con from 0.00757187 to 0.00757187
Heightened Def Con from 0.00757583 to 0.00757584
Heightened Def Con from 0.00757866 to 0.00757867
Heightened Def Con from 0.00758263 to 0.00758263
Heightened Def Con from 0.00758545 to 0.00758546
Heightened Def Con from 0.00758942 to 0.00758942
Heightened Def Con from 0.00759224 to 0.00759225
Heightened Def Con from 0.00759903 to 0.00759904
Heightened Def Con from 0.00760299 to 0.007603
Heightened Def Con from 0.00760582 to 0.00760583
Heightened Def Con from 0.00760978 to 0.00760979
Heightened Def Con from 0.00761261 to 0.00761262
Heightened Def Con from 0.00761658 to 0.00761658
Heightened Def Con from 0.0076194 to 0.00761941
Heightened Def Con from 0.00762336 to 0.00762337
Heightened Def Con from 0.00762619 to 0.0076262
Heightened Def Con from 0.00763015 to 0.00763016
Heightened Def Con from 0.00763298 to 0.00763299
Heightened Def Con from 0.00763695 to 0.00763695
Heightened Def Con from 0.00763977 to 0.00763978
Heightened Def Con from 0.00764374 to 0.00764374
Heightened Def Con from 0.00764656 to 0.00764657
Heightened Def Con from 0.00765052 to 0.00765053
Heightened Def Con from 0.00765336 to 0.00765336
Heightened Def Con from 0.00765732 to 0.00765732
Heightened Def Con from 0.00766015 to 0.00766015
Heightened Def Con from 0.00766358 to 0.00766358
Heightened Def Con from 0.00766411 to 0.00766412
Heightened Def Con from 0.00766694 to 0.00766694
Heightened Def Con from 0.0076709 to 0.0076709
Heightened Def Con from 0.00767373 to 0.00767373
Heightened Def Con from 0.00767769 to 0.00767769
Heightened Def Con from 0.00768052 to 0.00768052
Heightened Def Con from 0.00768448 to 0.00768448
Heightened Def Con from 0.00768731 to 0.00768732
Heightened Def Con from 0.00769128 to 0.00769128
Heightened Def Con from 0.0076941 to 0.00769411
Heightened Def Con from 0.00769806 to 0.00769806
Heightened Def Con from 0.00770089 to 0.0077009
Heightened Def Con from 0.00770486 to 0.00770486
Heightened Def Con from 0.00770768 to 0.00770769
Heightened Def Con from 0.00771447 to 0.00771448
Heightened Def Con from 0.00771843 to 0.00771844
Heightened Def Con from 0.00772126 to 0.00772127
Heightened Def Con from 0.00772522 to 0.00772523
Heightened Def Con from 0.00772805 to 0.00772806
Heightened Def Con from 0.00773202 to 0.00773202
Heightened Def Con from 0.00773484 to 0.00773485
Heightened Def Con from 0.00773881 to 0.00773881
Heightened Def Con from 0.00774164 to 0.00774164
Heightened Def Con from 0.00774561 to 0.00774561
Heightened Def Con from 0.00774843 to 0.00774844
Heightened Def Con from 0.0077524 to 0.0077524
Heightened Def Con from 0.00775523 to 0.00775523
Heightened Def Con from 0.00775919 to 0.0077592
Heightened Def Con from 0.00776202 to 0.00776202
Heightened Def Con from 0.00776598 to 0.00776598
Heightened Def Con from 0.0077688 to 0.00776881
Heightened Def Con from 0.00777277 to 0.00777277
Heightened Def Con from 0.0077756 to 0.0077756
Heightened Def Con from 0.00777956 to 0.00777956
Heightened Def Con from 0.00778239 to 0.00778239
Heightened Def Con from 0.00778634 to 0.00778635
Heightened Def Con from 0.00778918 to 0.00778918
[...]
Heightened Def Con from 0.0102339 to 0.0102339
Heightened Def Con from 0.0102406 to 0.0102406
Heightened Def Con from 0.0102474 to 0.0102474
Heightened Def Con from 0.0102542 to 0.0102542
Heightened Def Con from 0.010261 to 0.010261
Heightened Def Con from 0.0102616 to 0.0102616
Heightened Def Con from 0.0102678 to 0.0102678
Heightened Def Con from 0.0102746 to 0.0102746
Heightened Def Con from 0.0102814 to 0.0102814
Heightened Def Con from 0.0102882 to 0.0102882
Heightened Def Con from 0.010295 to 0.010295
Heightened Def Con from 0.0103018 to 0.0103018
Heightened Def Con from 0.0103086 to 0.0103086
Heightened Def Con from 0.0103153 to 0.0103153
Heightened Def Con from 0.0103221 to 0.0103221
Heightened Def Con from 0.0103227 to 0.0103227
Heightened Def Con from 0.0103289 to 0.0103289
Heightened Def Con from 0.0103357 to 0.0103357
Heightened Def Con from 0.0103425 to 0.0103425
Heightened Def Con from 0.0103431 to 0.0103431
Heightened Def Con from 0.0103493 to 0.0103493
Heightened Def Con from 0.0103499 to 0.0103499
Heightened Def Con from 0.0103561 to 0.0103561
Heightened Def Con from 0.0103629 to 0.0103629
Heightened Def Con from 0.0103634 to 0.0103635
Heightened Def Con from 0.0103697 to 0.0103697
Heightened Def Con from 0.0103702 to 0.0103702
Heightened Def Con from 0.0103765 to 0.0103765
Heightened Def Con from 0.010377 to 0.010377
Heightened Def Con from 0.0103833 to 0.0103833
Heightened Def Con from 0.0103838 to 0.0103838
Heightened Def Con from 0.01039 to 0.01039
Heightened Def Con from 0.0103906 to 0.0103906
Heightened Def Con from 0.0103968 to 0.0103968
Heightened Def Con from 0.0103974 to 0.0103974
Heightened Def Con from 0.0104036 to 0.0104036
Heightened Def Con from 0.0104042 to 0.0104042
Heightened Def Con from 0.0104104 to 0.0104104
Heightened Def Con from 0.010411 to 0.010411
Heightened Def Con from 0.0104172 to 0.0104172
Heightened Def Con from 0.0104178 to 0.0104178
Heightened Def Con from 0.010424 to 0.010424
Heightened Def Con from 0.0104308 to 0.0104308
Heightened Def Con from 0.0104313 to 0.0104313
Heightened Def Con from 0.0104376 to 0.0104376
Heightened Def Con from 0.0104444 to 0.0104444
Heightened Def Con from 0.0104512 to 0.0104512
Heightened Def Con from 0.0104517 to 0.0104517
Heightened Def Con from 0.010458 to 0.010458
Heightened Def Con from 0.0104585 to 0.0104585
Heightened Def Con from 0.0104647 to 0.0104648
Heightened Def Con from 0.0104653 to 0.0104653
Heightened Def Con from 0.0104715 to 0.0104715
Heightened Def Con from 0.0104721 to 0.0104721
Heightened Def Con from 0.0104783 to 0.0104783
Heightened Def Con from 0.0104789 to 0.0104789
Heightened Def Con from 0.0104851 to 0.0104851
Heightened Def Con from 0.0104857 to 0.0104857
Heightened Def Con from 0.0104919 to 0.0104919
Heightened Def Con from 0.0104925 to 0.0104925
Heightened Def Con from 0.0104987 to 0.0104987
Heightened Def Con from 0.0104993 to 0.0104993
Heightened Def Con from 0.0105055 to 0.0105055
Heightened Def Con from 0.0105123 to 0.0105123
Heightened Def Con from 0.0105128 to 0.0105128
Heightened Def Con from 0.0105191 to 0.0105191
Heightened Def Con from 0.0105196 to 0.0105196
Heightened Def Con from 0.0105259 to 0.0105259
Heightened Def Con from 0.0105326 to 0.0105326
Heightened Def Con from 0.0105332 to 0.0105332
Heightened Def Con from 0.0105394 to 0.0105394
Heightened Def Con from 0.0105462 to 0.0105462
Heightened Def Con from 0.010553 to 0.010553
Heightened Def Con from 0.0105536 to 0.0105536
Heightened Def Con from 0.0105598 to 0.0105598
Heightened Def Con from 0.0105666 to 0.0105666
Heightened Def Con from 0.0105734 to 0.0105734
Heightened Def Con from 0.010574 to 0.010574
Heightened Def Con from 0.0105802 to 0.0105802
Heightened Def Con from 0.0105807 to 0.0105808
Heightened Def Con from 0.010587 to 0.010587
Heightened Def Con from 0.0105875 to 0.0105875
Heightened Def Con from 0.0105938 to 0.0105938
Heightened Def Con from 0.0105943 to 0.0105943
Heightened Def Con from 0.0106006 to 0.0106006
Heightened Def Con from 0.0106073 to 0.0106073
Heightened Def Con from 0.0106141 to 0.0106141
Heightened Def Con from 0.0106209 to 0.0106209
Heightened Def Con from 0.0106277 to 0.0106277
Heightened Def Con from 0.0106345 to 0.0106345
Heightened Def Con from 0.0106413 to 0.0106413
Heightened Def Con from 0.0106419 to 0.0106419
Heightened Def Con from 0.0106481 to 0.0106481
Heightened Def Con from 0.0106549 to 0.0106549
Heightened Def Con from 0.0106554 to 0.0106554
Heightened Def Con from 0.0106617 to 0.0106617
Heightened Def Con from 0.0106622 to 0.0106622
Heightened Def Con from 0.0106685 to 0.0106685
Heightened Def Con from 0.010669 to 0.010669
Heightened Def Con from 0.0106752 to 0.0106752
Heightened Def Con from 0.0106758 to 0.0106758
Heightened Def Con from 0.010682 to 0.010682
Heightened Def Con from 0.0106826 to 0.0106826
Heightened Def Con from 0.0106888 to 0.0106888
Heightened Def Con from 0.0106956 to 0.0106956
Heightened Def Con from 0.0106962 to 0.0106962
Heightened Def Con from 0.0107024 to 0.0107024
Heightened Def Con from 0.010703 to 0.010703
Heightened Def Con from 0.0107092 to 0.0107092
Heightened Def Con from 0.0107098 to 0.0107098
Heightened Def Con from 0.010716 to 0.010716
Heightened Def Con from 0.0107166 to 0.0107166
Heightened Def Con from 0.0107228 to 0.0107228
Heightened Def Con from 0.0107233 to 0.0107233
Heightened Def Con from 0.0107296 to 0.0107296
Heightened Def Con from 0.0107301 to 0.0107301
Heightened Def Con from 0.0107364 to 0.0107364
Heightened Def Con from 0.0107432 to 0.0107432
Heightened Def Con from 0.0107499 to 0.0107499
Heightened Def Con from 0.0107505 to 0.0107505
Heightened Def Con from 0.0107567 to 0.0107567
Heightened Def Con from 0.0107573 to 0.0107573
Heightened Def Con from 0.0107635 to 0.0107635
Heightened Def Con from 0.0107641 to 0.0107641
Heightened Def Con from 0.0107703 to 0.0107703
Heightened Def Con from 0.0107709 to 0.0107709
Heightened Def Con from 0.0107771 to 0.0107771
Heightened Def Con from 0.0107839 to 0.0107839
Heightened Def Con from 0.0107845 to 0.0107845
Heightened Def Con from 0.0107873 to 0.0107873
Heightened Def Con from 0.0107907 to 0.0107907
Heightened Def Con from 0.0107913 to 0.0107913
Heightened Def Con from 0.0107975 to 0.0107975
Heightened Def Con from 0.010798 to 0.010798
Heightened Def Con from 0.0108043 to 0.0108043
Heightened Def Con from 0.0108048 to 0.0108048
Heightened Def Con from 0.0108111 to 0.0108111
Heightened Def Con from 0.0108178 to 0.0108179
Heightened Def Con from 0.0108184 to 0.0108184
Heightened Def Con from 0.0108246 to 0.0108246
Heightened Def Con from 0.0108252 to 0.0108252
Heightened Def Con from 0.0108314 to 0.0108314
Heightened Def Con from 0.0108382 to 0.0108382
Heightened Def Con from 0.0108388 to 0.0108388
Heightened Def Con from 0.010845 to 0.010845
Heightened Def Con from 0.0108456 to 0.0108456
Heightened Def Con from 0.0108518 to 0.0108518
Heightened Def Con from 0.0108524 to 0.0108524
Heightened Def Con from 0.0108586 to 0.0108586
Heightened Def Con from 0.0108592 to 0.0108592
Heightened Def Con from 0.0108654 to 0.0108654
Heightened Def Con from 0.0108659 to 0.0108659
Heightened Def Con from 0.0108722 to 0.0108722
Heightened Def Con from 0.010879 to 0.010879
Heightened Def Con from 0.0108795 to 0.0108795
Heightened Def Con from 0.0108857 to 0.0108858
Heightened Def Con from 0.0108863 to 0.0108863
Heightened Def Con from 0.0108925 to 0.0108925
Heightened Def Con from 0.0108931 to 0.0108931
Heightened Def Con from 0.0108993 to 0.0108993
Heightened Def Con from 0.0108999 to 0.0108999
Heightened Def Con from 0.0109061 to 0.0109061
Heightened Def Con from 0.0109129 to 0.0109129
Heightened Def Con from 0.0109135 to 0.0109135
Heightened Def Con from 0.0109197 to 0.0109197
Heightened Def Con from 0.0109203 to 0.0109203
Heightened Def Con from 0.0109265 to 0.0109265
Heightened Def Con from 0.0109271 to 0.0109271
Heightened Def Con from 0.0109299 to 0.0109299
Heightened Def Con from 0.0109333 to 0.0109333
Heightened Def Con from 0.0109338 to 0.0109338
Heightened Def Con from 0.0109401 to 0.0109401
Heightened Def Con from 0.0109406 to 0.0109406
Heightened Def Con from 0.0109469 to 0.0109469
Heightened Def Con from 0.0109474 to 0.0109474
Heightened Def Con from 0.0109537 to 0.0109537
Heightened Def Con from 0.0109542 to 0.0109542
Heightened Def Con from 0.0109604 to 0.0109605
Heightened Def Con from 0.0109672 to 0.0109672
Heightened Def Con from 0.010974 to 0.010974
Heightened Def Con from 0.0109808 to 0.0109808
Heightened Def Con from 0.0109876 to 0.0109876
Heightened Def Con from 0.0109882 to 0.0109882
Heightened Def Con from 0.0109944 to 0.0109944
Heightened Def Con from 0.0110012 to 0.0110012
Heightened Def Con from 0.0110018 to 0.0110018
Heightened Def Con from 0.011008 to 0.011008
Heightened Def Con from 0.0110148 to 0.0110148
Heightened Def Con from 0.0110216 to 0.0110216
Heightened Def Con from 0.0110284 to 0.0110284
Heightened Def Con from 0.0110289 to 0.0110289
Heightened Def Con from 0.0110351 to 0.0110351
Heightened Def Con from 0.0110419 to 0.0110419
Heightened Def Con from 0.0110487 to 0.0110487
Heightened Def Con from 0.0110555 to 0.0110555
Heightened Def Con from 0.0110623 to 0.0110623
Heightened Def Con from 0.0110691 to 0.0110691
Heightened Def Con from 0.0110759 to 0.0110759
Heightened Def Con from 0.0110827 to 0.0110827
Heightened Def Con from 0.0110832 to 0.0110832
Heightened Def Con from 0.0110895 to 0.0110895
Heightened Def Con from 0.01109 to 0.01109
Heightened Def Con from 0.0110963 to 0.0110963
Heightened Def Con from 0.0110968 to 0.0110968
Heightened Def Con from 0.0111031 to 0.0111031
Heightened Def Con from 0.0111036 to 0.0111036
Heightened Def Con from 0.0111098 to 0.0111099
Heightened Def Con from 0.0111104 to 0.0111104
Heightened Def Con from 0.0111166 to 0.0111166
Heightened Def Con from 0.0111234 to 0.0111234
Heightened Def Con from 0.011124 to 0.011124
Heightened Def Con from 0.0111302 to 0.0111302
Heightened Def Con from 0.011137 to 0.011137
Heightened Def Con from 0.0111376 to 0.0111376
Heightened Def Con from 0.0111438 to 0.0111438
Heightened Def Con from 0.0111444 to 0.0111444
Heightened Def Con from 0.0111506 to 0.0111506
Heightened Def Con from 0.0111511 to 0.0111512
Heightened Def Con from 0.0111574 to 0.0111574
Heightened Def Con from 0.0111642 to 0.0111642
Heightened Def Con from 0.011171 to 0.011171
Heightened Def Con from 0.0111715 to 0.0111715
Heightened Def Con from 0.0111777 to 0.0111778
Heightened Def Con from 0.0111783 to 0.0111783
Heightened Def Con from 0.0111845 to 0.0111845
Heightened Def Con from 0.0111913 to 0.0111913
Heightened Def Con from 0.0111981 to 0.0111981
Heightened Def Con from 0.0112049 to 0.0112049
Heightened Def Con from 0.0112055 to 0.0112055
Heightened Def Con from 0.0112117 to 0.0112117
Heightened Def Con from 0.0112123 to 0.0112123
Heightened Def Con from 0.0112185 to 0.0112185
Heightened Def Con from 0.0112253 to 0.0112253
Heightened Def Con from 0.0112321 to 0.0112321
Heightened Def Con from 0.0112326 to 0.0112326
Heightened Def Con from 0.0112389 to 0.0112389
Heightened Def Con from 0.0112394 to 0.0112394
Heightened Def Con from 0.0112457 to 0.0112457
Heightened Def Con from 0.0112524 to 0.0112524
Heightened Def Con from 0.0112592 to 0.0112592
Heightened Def Con from 0.0112598 to 0.0112598
Heightened Def Con from 0.011266 to 0.011266
Heightened Def Con from 0.0112728 to 0.0112728
Heightened Def Con from 0.0112734 to 0.0112734
Heightened Def Con from 0.0112796 to 0.0112796
Heightened Def Con from 0.0112802 to 0.0112802
Heightened Def Con from 0.0112864 to 0.0112864
Heightened Def Con from 0.0112932 to 0.0112932
Heightened Def Con from 0.0112938 to 0.0112938
Heightened Def Con from 0.0113 to 0.0113
Heightened Def Con from 0.0113034 to 0.0113034
Heightened Def Con from 0.0113068 to 0.0113068
Heightened Def Con from 0.0113073 to 0.0113073
Heightened Def Con from 0.0113136 to 0.0113136
Heightened Def Con from 0.0113203 to 0.0113204
Heightened Def Con from 0.0113271 to 0.0113271
Heightened Def Con from 0.0113339 to 0.0113339
Heightened Def Con from 0.0113345 to 0.0113345
Heightened Def Con from 0.0113407 to 0.0113407
Heightened Def Con from 0.0113413 to 0.0113413
Heightened Def Con from 0.0113475 to 0.0113475
Heightened Def Con from 0.0113543 to 0.0113543
Heightened Def Con from 0.0113611 to 0.0113611
Heightened Def Con from 0.0113679 to 0.0113679
Heightened Def Con from 0.0113685 to 0.0113685
Heightened Def Con from 0.0113747 to 0.0113747
Heightened Def Con from 0.0113752 to 0.0113752
Heightened Def Con from 0.0113815 to 0.0113815
Heightened Def Con from 0.011382 to 0.011382
Heightened Def Con from 0.0113883 to 0.0113883
Heightened Def Con from 0.0113888 to 0.0113888
Heightened Def Con from 0.0113951 to 0.0113951
Heightened Def Con from 0.0113956 to 0.0113956
Heightened Def Con from 0.0114018 to 0.0114018
Heightened Def Con from 0.0114024 to 0.0114024
Heightened Def Con from 0.0114086 to 0.0114086
Heightened Def Con from 0.0114092 to 0.0114092
Heightened Def Con from 0.0114154 to 0.0114154
Heightened Def Con from 0.0114222 to 0.0114222
Heightened Def Con from 0.0114228 to 0.0114228
Heightened Def Con from 0.011429 to 0.011429
Heightened Def Con from 0.0114296 to 0.0114296
Heightened Def Con from 0.0114358 to 0.0114358
Heightened Def Con from 0.0114426 to 0.0114426
Heightened Def Con from 0.0114432 to 0.0114432
Heightened Def Con from 0.0114494 to 0.0114494
Heightened Def Con from 0.0114499 to 0.01145
Heightened Def Con from 0.0114562 to 0.0114562
Heightened Def Con from 0.0114567 to 0.0114567
Heightened Def Con from 0.011463 to 0.011463
Heightened Def Con from 0.0114635 to 0.0114635
Heightened Def Con from 0.0114698 to 0.0114698
Heightened Def Con from 0.0114703 to 0.0114703
Heightened Def Con from 0.0114766 to 0.0114766
Heightened Def Con from 0.0114771 to 0.0114771
Heightened Def Con from 0.0114833 to 0.0114833
Heightened Def Con from 0.0114839 to 0.0114839
Heightened Def Con from 0.0114901 to 0.0114901
Heightened Def Con from 0.0114969 to 0.0114969
Heightened Def Con from 0.0115037 to 0.0115037
Heightened Def Con from 0.0115043 to 0.0115043
Heightened Def Con from 0.0115105 to 0.0115105
Heightened Def Con from 0.0115111 to 0.0115111
Heightened Def Con from 0.0115139 to 0.0115139
Heightened Def Con from 0.0115173 to 0.0115173
Heightened Def Con from 0.0115179 to 0.0115179
Heightened Def Con from 0.0115241 to 0.0115241
Heightened Def Con from 0.0115247 to 0.0115247
Heightened Def Con from 0.0115309 to 0.0115309
Heightened Def Con from 0.0115377 to 0.0115377
Heightened Def Con from 0.0115382 to 0.0115382
Heightened Def Con from 0.0115445 to 0.0115445
Heightened Def Con from 0.011545 to 0.011545
Heightened Def Con from 0.0115513 to 0.0115513
Heightened Def Con from 0.011558 to 0.011558
Heightened Def Con from 0.0115648 to 0.0115648
Heightened Def Con from 0.0115654 to 0.0115654
Heightened Def Con from 0.0115716 to 0.0115716
Heightened Def Con from 0.0115722 to 0.0115722
Heightened Def Con from 0.0115784 to 0.0115784
Heightened Def Con from 0.011579 to 0.011579
Heightened Def Con from 0.0115852 to 0.0115852
Heightened Def Con from 0.011592 to 0.011592
Heightened Def Con from 0.0115926 to 0.0115926
Heightened Def Con from 0.0115988 to 0.0115988
Heightened Def Con from 0.0115993 to 0.0115993
Heightened Def Con from 0.0116056 to 0.0116056
Heightened Def Con from 0.0116061 to 0.0116061
Heightened Def Con from 0.0116124 to 0.0116124
Heightened Def Con from 0.0116192 to 0.0116192
Heightened Def Con from 0.0116259 to 0.0116259
Heightened Def Con from 0.0116327 to 0.0116327
Heightened Def Con from 0.0116395 to 0.0116395
Heightened Def Con from 0.0116401 to 0.0116401
Heightened Def Con from 0.0116463 to 0.0116463
Heightened Def Con from 0.0116469 to 0.0116469
Heightened Def Con from 0.0116531 to 0.0116531
Heightened Def Con from 0.0116599 to 0.0116599
Heightened Def Con from 0.0116605 to 0.0116605
Heightened Def Con from 0.0116667 to 0.0116667
Heightened Def Con from 0.0116735 to 0.0116735
Heightened Def Con from 0.011677 to 0.011677
Heightened Def Con from 0.0116803 to 0.0116803
Heightened Def Con from 0.0116808 to 0.0116808
Heightened Def Con from 0.0116871 to 0.0116871
Heightened Def Con from 0.0116876 to 0.0116876
Heightened Def Con from 0.0116939 to 0.0116939
Heightened Def Con from 0.0117007 to 0.0117007
Heightened Def Con from 0.0117012 to 0.0117012
Heightened Def Con from 0.0117074 to 0.0117074
Heightened Def Con from 0.011708 to 0.011708
Heightened Def Con from 0.0117142 to 0.0117142
Heightened Def Con from 0.011721 to 0.011721
Heightened Def Con from 0.0117216 to 0.0117216
Heightened Def Con from 0.0117278 to 0.0117278
Heightened Def Con from 0.0117284 to 0.0117284
Heightened Def Con from 0.0117346 to 0.0117346
Heightened Def Con from 0.0117352 to 0.0117352
Heightened Def Con from 0.0117414 to 0.0117414
Heightened Def Con from 0.011742 to 0.011742
Heightened Def Con from 0.0117482 to 0.0117482
Heightened Def Con from 0.011755 to 0.011755
Heightened Def Con from 0.0117555 to 0.0117555
Heightened Def Con from 0.0117618 to 0.0117618
Heightened Def Con from 0.0117686 to 0.0117686
Heightened Def Con from 0.0117691 to 0.0117691
Heightened Def Con from 0.0117754 to 0.0117754
Heightened Def Con from 0.0117821 to 0.0117821
Heightened Def Con from 0.0117889 to 0.0117889
Heightened Def Con from 0.0117895 to 0.0117895
Heightened Def Con from 0.0117957 to 0.0117957
Heightened Def Con from 0.0117963 to 0.0117963
Heightened Def Con from 0.0118025 to 0.0118025
Heightened Def Con from 0.0118031 to 0.0118031
Heightened Def Con from 0.0118093 to 0.0118093
Heightened Def Con from 0.0118161 to 0.0118161
Heightened Def Con from 0.0118229 to 0.0118229
Heightened Def Con from 0.0118297 to 0.0118297
Heightened Def Con from 0.0118302 to 0.0118302
Heightened Def Con from 0.0118365 to 0.0118365
Heightened Def Con from 0.011837 to 0.011837
Heightened Def Con from 0.0118433 to 0.0118433
Heightened Def Con from 0.0118438 to 0.0118438
Heightened Def Con from 0.0118501 to 0.0118501
Heightened Def Con from 0.0118568 to 0.0118568
Heightened Def Con from 0.0118574 to 0.0118574
Heightened Def Con from 0.0118636 to 0.0118636
Heightened Def Con from 0.0118642 to 0.0118642
Heightened Def Con from 0.0118704 to 0.0118704
Heightened Def Con from 0.011871 to 0.011871
Heightened Def Con from 0.0118772 to 0.0118772
Heightened Def Con from 0.0118778 to 0.0118778
Heightened Def Con from 0.011884 to 0.011884
Heightened Def Con from 0.0118908 to 0.0118908
Heightened Def Con from 0.0118914 to 0.0118914
Heightened Def Con from 0.0118976 to 0.0118976
Heightened Def Con from 0.0119044 to 0.0119044
Heightened Def Con from 0.0119112 to 0.0119112
Heightened Def Con from 0.011918 to 0.011918
Heightened Def Con from 0.0119185 to 0.0119185
Heightened Def Con from 0.0119248 to 0.0119248
Heightened Def Con from 0.0119253 to 0.0119253
Heightened Def Con from 0.0119316 to 0.0119316
Heightened Def Con from 0.0119321 to 0.0119321
Heightened Def Con from 0.0119383 to 0.0119383
Heightened Def Con from 0.0119451 to 0.0119451
Heightened Def Con from 0.0119457 to 0.0119457
Heightened Def Con from 0.0119486 to 0.0119486
Heightened Def Con from 0.0119519 to 0.0119519
Heightened Def Con from 0.0119587 to 0.0119587
Heightened Def Con from 0.0119593 to 0.0119593
Heightened Def Con from 0.0119655 to 0.0119655
Heightened Def Con from 0.0119723 to 0.0119723
Heightened Def Con from 0.0119729 to 0.0119729
Heightened Def Con from 0.0119791 to 0.0119791
Heightened Def Con from 0.0119859 to 0.0119859
Heightened Def Con from 0.0119927 to 0.0119927
Heightened Def Con from 0.0119995 to 0.0119995

Date: Sat Sep 14 04:12:59 2024
Total elapsed time: 701.448 seconds.

tnom = 27
temp = 27
method = modified trap
totiter = 7221820
traniter = 7219169
tranpoints = 2090614
accept = 1545776
rejected = 547460
matrix size = 886
fillins = 659
solver = Normal
Avg thread counts: 7.0/4.0/1.0/1.0
Matrix Compiler1: 59.93 KB object code size  12.6/6.2/[4.0]
Matrix Compiler2: 60.47 KB object code size  5.8/9.3/[5.0]

