Circuit: * C:\Users\ngwei\OneDrive\Desktop\Supercap\litspice\LT8708 test3.asc

v3: Removing PWL point (1e-05,0)
WARNING: Node NC_01 is floating.

WARNING: Less than two connections to node nc_01.  This node is used by s3.
Direct Newton iteration failed to find .op point.  (Use ".option noopiter" to skip.)
Starting Gmin stepping
Gmin = 10
Gmin = 1.07374
Gmin = 0.115292
Gmin = 0.0123794
Gmin = 0.00132923
Gmin = 0.000142725
Gmin = 1.5325e-05
Gmin = 1.6455e-06
Gmin = 1.76685e-07
Gmin = 1.89714e-08
Gmin = 2.03704e-09
Gmin = 2.18725e-10
Gmin = 2.34854e-11
Gmin = 2.52173e-12
Gmin = 0
Gmin stepping succeeded in finding the operating point.

Ignoring empty pin current: Ix(u1:20)
Ignoring empty pin current: Ix(u1:24)
Ignoring empty pin current: Ix(u1:25)
Ignoring empty pin current: Ix(u1:26)
Ignoring empty pin current: Ix(u1:27)
Ignoring empty pin current: Ix(u1:28)
Ignoring empty pin current: Ix(u1:40)
Ignoring empty pin current: Ix(u1:41)
Ignoring empty pin current: Ix(u2:4)
Ignoring empty pin current: Ix(u3:4)
Ignoring empty pin current: Ix(u1:20)
Ignoring empty pin current: Ix(u1:24)
Ignoring empty pin current: Ix(u1:25)
Ignoring empty pin current: Ix(u1:26)
Ignoring empty pin current: Ix(u1:27)
Ignoring empty pin current: Ix(u1:28)
Ignoring empty pin current: Ix(u1:40)
Ignoring empty pin current: Ix(u1:41)
Ignoring empty pin current: Ix(u2:4)
Ignoring empty pin current: Ix(u3:4)
Heightened Def Con from 0.00959892 to 0.00959892
Heightened Def Con from 0.00959892 to 0.00959892
Heightened Def Con from 0.00959892 to 0.00959892
Heightened Def Con from 0.00959892 to 0.00959892
Heightened Def Con from 0.00959892 to 0.00959892
Heightened Def Con from 0.00959892 to 0.00959892
Heightened Def Con from 0.00959892 to 0.00959892
Heightened Def Con from 0.00959892 to 0.00959892
Heightened Def Con from 0.00959892 to 0.00959892
Heightened Def Con from 0.00959892 to 0.00959892
Heightened Def Con from 0.00959892 to 0.00959892
Heightened Def Con from 0.00959892 to 0.00959892
Heightened Def Con from 0.00959892 to 0.00959892
Heightened Def Con from 0.00959892 to 0.00959892
Heightened Def Con from 0.00959892 to 0.00959892
Heightened Def Con from 0.00959892 to 0.00959892
Heightened Def Con from 0.00959892 to 0.00959892
Heightened Def Con from 0.00959892 to 0.00959892
Heightened Def Con from 0.00959892 to 0.00959892
Heightened Def Con from 0.00959892 to 0.00959892
Heightened Def Con from 0.00959892 to 0.00959892
Heightened Def Con from 0.00959892 to 0.00959892
Heightened Def Con from 0.00959892 to 0.00959892
Heightened Def Con from 0.00959892 to 0.00959892
Heightened Def Con from 0.00959892 to 0.00959892
Heightened Def Con from 0.00959892 to 0.00959892
Heightened Def Con from 0.00959892 to 0.00959892
Heightened Def Con from 0.00959892 to 0.00959892
Heightened Def Con from 0.00959892 to 0.00959892
Heightened Def Con from 0.00959892 to 0.00959892
Heightened Def Con from 0.00959892 to 0.00959892
Heightened Def Con from 0.00959892 to 0.00959892
Heightened Def Con from 0.00959892 to 0.00959892
Heightened Def Con from 0.00959892 to 0.00959892
Heightened Def Con from 0.00959892 to 0.00959892
Heightened Def Con from 0.00959892 to 0.00959892
Heightened Def Con from 0.00959892 to 0.00959892
Heightened Def Con from 0.00959892 to 0.00959892
Heightened Def Con from 0.00959892 to 0.00959892
Heightened Def Con from 0.00959892 to 0.00959892
Heightened Def Con from 0.00959892 to 0.00959892
Heightened Def Con from 0.00959892 to 0.00959892
Heightened Def Con from 0.00959892 to 0.00959892
Heightened Def Con from 0.00959892 to 0.00959892
Heightened Def Con from 0.00959892 to 0.00959892
Heightened Def Con from 0.00959892 to 0.00959892
Heightened Def Con from 0.00959892 to 0.00959892
Heightened Def Con from 0.00959892 to 0.00959892
Heightened Def Con from 0.00959892 to 0.00959892
Heightened Def Con from 0.00959892 to 0.00959892
Heightened Def Con from 0.00959892 to 0.00959892
Heightened Def Con from 0.00959892 to 0.00959892
Heightened Def Con from 0.00959892 to 0.00959892
Heightened Def Con from 0.00959892 to 0.00959892
Heightened Def Con from 0.00959892 to 0.00959892
Heightened Def Con from 0.00959892 to 0.00959892
Heightened Def Con from 0.00959892 to 0.00959892
Heightened Def Con from 0.00959892 to 0.00959892
Heightened Def Con from 0.00959892 to 0.00959892
Heightened Def Con from 0.00959892 to 0.00959892
Heightened Def Con from 0.00959892 to 0.00959892
Heightened Def Con from 0.00959892 +++++to 0.00959892
Heightened Def Con from 0.0134458 +++++to 0.0134458
Heightened Def Con from 0.0190943 +++++to 0.0190943
Heightened Def Con from 0.0229371 +++++to 0.0229371
Heightened Def Con from 0.0267909 +++++to 0.0267909

Date: Fri Sep 13 22:56:42 2024
Total elapsed time: 922.780 seconds.

tnom = 27
temp = 27
method = modified trap
totiter = 11567819
traniter = 11567201
tranpoints = 3214208
accept = 2388774
rejected = 825525
matrix size = 752
fillins = 156
solver = Normal
Avg thread counts: 3.0/3.0/1.0/1.0
Matrix Compiler1: 26.58 KB object code size  6.2/2.9/[2.3]
Matrix Compiler2: 40.32 KB object code size  3.9/6.5/[3.9]

